<?xml version="1.0" encoding="UTF-8"?>

<!-- generated on Mon Apr 12 01:16:04 2021 by Eclipse SUMO netconvert Version 1.3.1
<configuration xmlns:xsi="http://www.w3.org/2001/XMLSchema-instance" xsi:noNamespaceSchemaLocation="http://sumo.dlr.de/xsd/netconvertConfiguration.xsd">

    <input>
        <node-files value="plain_ATL.nod.xml"/>
        <edge-files value="plain_ATL.edg.xml"/>
        <connection-files value="plain_ATL.con.xml"/>
    </input>

    <output>
        <output-file value="dayuan.grid.3.updatedGenerated.ATL.net.xml"/>
    </output>

    <tls_building>
        <tls.default-type value="actuated"/>
    </tls_building>

    <report>
        <ignore-errors.edge-type value="true"/>
    </report>

</configuration>
-->

<net version="1.3" junctionCornerDetail="5" limitTurnSpeed="5.50" xmlns:xsi="http://www.w3.org/2001/XMLSchema-instance" xsi:noNamespaceSchemaLocation="http://sumo.dlr.de/xsd/net_file.xsd">

    <location netOffset="0.00,0.00" convBoundary="0.00,0.00,640.00,640.00" origBoundary="0.00,0.00,640.00,640.00" projParameter="!"/>

    <edge id=":A0_0" function="internal">
        <lane id=":A0_0_0" index="0" speed="6.51" length="9.03" shape="15.20,30.40 14.85,27.95 13.80,26.20 12.05,25.15 9.60,24.80"/>
    </edge>
    <edge id=":A0_1" function="internal">
        <lane id=":A0_1_0" index="0" speed="13.89" length="20.80" shape="15.20,30.40 15.20,9.60"/>
        <lane id=":A0_1_1" index="1" speed="13.89" length="20.80" shape="18.40,30.40 18.40,9.60"/>
    </edge>
    <edge id=":A0_3" function="internal">
        <lane id=":A0_3_0" index="0" speed="9.26" length="6.96" shape="18.40,30.40 19.15,25.15 20.00,23.73"/>
    </edge>
    <edge id=":A0_4" function="internal">
        <lane id=":A0_4_0" index="0" speed="3.65" length="2.34" shape="18.40,30.40 19.20,29.20 20.00,28.80"/>
    </edge>
    <edge id=":A0_20" function="internal">
        <lane id=":A0_20_0" index="0" speed="9.26" length="12.40" shape="20.00,23.73 21.40,21.40 25.15,19.15 30.40,18.40"/>
    </edge>
    <edge id=":A0_21" function="internal">
        <lane id=":A0_21_0" index="0" speed="3.65" length="2.34" shape="20.00,28.80 20.80,29.20 21.60,30.40"/>
    </edge>
    <edge id=":A0_5" function="internal">
        <lane id=":A0_5_0" index="0" speed="6.51" length="9.03" shape="30.40,24.80 27.95,25.15 26.20,26.20 25.15,27.95 24.80,30.40"/>
    </edge>
    <edge id=":A0_6" function="internal">
        <lane id=":A0_6_0" index="0" speed="13.89" length="20.80" shape="30.40,24.80 9.60,24.80"/>
        <lane id=":A0_6_1" index="1" speed="13.89" length="20.80" shape="30.40,21.60 9.60,21.60"/>
    </edge>
    <edge id=":A0_8" function="internal">
        <lane id=":A0_8_0" index="0" speed="9.26" length="6.96" shape="30.40,21.60 25.15,20.85 23.73,20.00"/>
    </edge>
    <edge id=":A0_9" function="internal">
        <lane id=":A0_9_0" index="0" speed="3.65" length="2.34" shape="30.40,21.60 29.20,20.80 28.80,20.00"/>
    </edge>
    <edge id=":A0_22" function="internal">
        <lane id=":A0_22_0" index="0" speed="9.26" length="12.40" shape="23.73,20.00 21.40,18.60 19.15,14.85 18.40,9.60"/>
    </edge>
    <edge id=":A0_23" function="internal">
        <lane id=":A0_23_0" index="0" speed="3.65" length="2.34" shape="28.80,20.00 29.20,19.20 30.40,18.40"/>
    </edge>
    <edge id=":A0_10" function="internal">
        <lane id=":A0_10_0" index="0" speed="6.51" length="9.03" shape="24.80,9.60 25.15,12.05 26.20,13.80 27.95,14.85 30.40,15.20"/>
    </edge>
    <edge id=":A0_11" function="internal">
        <lane id=":A0_11_0" index="0" speed="13.89" length="20.80" shape="24.80,9.60 24.80,30.40"/>
        <lane id=":A0_11_1" index="1" speed="13.89" length="20.80" shape="21.60,9.60 21.60,30.40"/>
    </edge>
    <edge id=":A0_13" function="internal">
        <lane id=":A0_13_0" index="0" speed="9.26" length="6.96" shape="21.60,9.60 20.85,14.85 20.00,16.27"/>
    </edge>
    <edge id=":A0_14" function="internal">
        <lane id=":A0_14_0" index="0" speed="3.65" length="2.34" shape="21.60,9.60 20.80,10.80 20.00,11.20"/>
    </edge>
    <edge id=":A0_24" function="internal">
        <lane id=":A0_24_0" index="0" speed="9.26" length="12.40" shape="20.00,16.27 18.60,18.60 14.85,20.85 9.60,21.60"/>
    </edge>
    <edge id=":A0_25" function="internal">
        <lane id=":A0_25_0" index="0" speed="3.65" length="2.34" shape="20.00,11.20 19.20,10.80 18.40,9.60"/>
    </edge>
    <edge id=":A0_15" function="internal">
        <lane id=":A0_15_0" index="0" speed="6.51" length="9.03" shape="9.60,15.20 12.05,14.85 13.80,13.80 14.85,12.05 15.20,9.60"/>
    </edge>
    <edge id=":A0_16" function="internal">
        <lane id=":A0_16_0" index="0" speed="13.89" length="20.80" shape="9.60,15.20 30.40,15.20"/>
        <lane id=":A0_16_1" index="1" speed="13.89" length="20.80" shape="9.60,18.40 30.40,18.40"/>
    </edge>
    <edge id=":A0_18" function="internal">
        <lane id=":A0_18_0" index="0" speed="9.26" length="6.96" shape="9.60,18.40 14.85,19.15 16.27,20.00"/>
    </edge>
    <edge id=":A0_19" function="internal">
        <lane id=":A0_19_0" index="0" speed="3.65" length="2.34" shape="9.60,18.40 10.80,19.20 11.20,20.00"/>
    </edge>
    <edge id=":A0_26" function="internal">
        <lane id=":A0_26_0" index="0" speed="9.26" length="12.40" shape="16.27,20.00 18.60,21.40 20.85,25.15 21.60,30.40"/>
    </edge>
    <edge id=":A0_27" function="internal">
        <lane id=":A0_27_0" index="0" speed="3.65" length="2.34" shape="11.20,20.00 10.80,20.80 9.60,21.60"/>
    </edge>
    <edge id=":A1_0" function="internal">
        <lane id=":A1_0_0" index="0" speed="6.51" length="9.03" shape="15.20,180.40 14.85,177.95 13.80,176.20 12.05,175.15 9.60,174.80"/>
    </edge>
    <edge id=":A1_1" function="internal">
        <lane id=":A1_1_0" index="0" speed="13.89" length="20.80" shape="15.20,180.40 15.20,159.60"/>
        <lane id=":A1_1_1" index="1" speed="13.89" length="20.80" shape="18.40,180.40 18.40,159.60"/>
    </edge>
    <edge id=":A1_3" function="internal">
        <lane id=":A1_3_0" index="0" speed="9.26" length="6.96" shape="18.40,180.40 19.15,175.15 20.00,173.73"/>
    </edge>
    <edge id=":A1_4" function="internal">
        <lane id=":A1_4_0" index="0" speed="3.65" length="2.34" shape="18.40,180.40 19.20,179.20 20.00,178.80"/>
    </edge>
    <edge id=":A1_20" function="internal">
        <lane id=":A1_20_0" index="0" speed="9.26" length="12.40" shape="20.00,173.73 21.40,171.40 25.15,169.15 30.40,168.40"/>
    </edge>
    <edge id=":A1_21" function="internal">
        <lane id=":A1_21_0" index="0" speed="3.65" length="2.34" shape="20.00,178.80 20.80,179.20 21.60,180.40"/>
    </edge>
    <edge id=":A1_5" function="internal">
        <lane id=":A1_5_0" index="0" speed="6.51" length="9.03" shape="30.40,174.80 27.95,175.15 26.20,176.20 25.15,177.95 24.80,180.40"/>
    </edge>
    <edge id=":A1_6" function="internal">
        <lane id=":A1_6_0" index="0" speed="13.89" length="20.80" shape="30.40,174.80 9.60,174.80"/>
        <lane id=":A1_6_1" index="1" speed="13.89" length="20.80" shape="30.40,171.60 9.60,171.60"/>
    </edge>
    <edge id=":A1_8" function="internal">
        <lane id=":A1_8_0" index="0" speed="9.26" length="6.96" shape="30.40,171.60 25.15,170.85 23.73,170.00"/>
    </edge>
    <edge id=":A1_9" function="internal">
        <lane id=":A1_9_0" index="0" speed="3.65" length="2.34" shape="30.40,171.60 29.20,170.80 28.80,170.00"/>
    </edge>
    <edge id=":A1_22" function="internal">
        <lane id=":A1_22_0" index="0" speed="9.26" length="12.40" shape="23.73,170.00 21.40,168.60 19.15,164.85 18.40,159.60"/>
    </edge>
    <edge id=":A1_23" function="internal">
        <lane id=":A1_23_0" index="0" speed="3.65" length="2.34" shape="28.80,170.00 29.20,169.20 30.40,168.40"/>
    </edge>
    <edge id=":A1_10" function="internal">
        <lane id=":A1_10_0" index="0" speed="6.51" length="9.03" shape="24.80,159.60 25.15,162.05 26.20,163.80 27.95,164.85 30.40,165.20"/>
    </edge>
    <edge id=":A1_11" function="internal">
        <lane id=":A1_11_0" index="0" speed="13.89" length="20.80" shape="24.80,159.60 24.80,180.40"/>
        <lane id=":A1_11_1" index="1" speed="13.89" length="20.80" shape="21.60,159.60 21.60,180.40"/>
    </edge>
    <edge id=":A1_13" function="internal">
        <lane id=":A1_13_0" index="0" speed="9.26" length="6.96" shape="21.60,159.60 20.85,164.85 20.00,166.27"/>
    </edge>
    <edge id=":A1_14" function="internal">
        <lane id=":A1_14_0" index="0" speed="3.65" length="2.34" shape="21.60,159.60 20.80,160.80 20.00,161.20"/>
    </edge>
    <edge id=":A1_24" function="internal">
        <lane id=":A1_24_0" index="0" speed="9.26" length="12.40" shape="20.00,166.27 18.60,168.60 14.85,170.85 9.60,171.60"/>
    </edge>
    <edge id=":A1_25" function="internal">
        <lane id=":A1_25_0" index="0" speed="3.65" length="2.34" shape="20.00,161.20 19.20,160.80 18.40,159.60"/>
    </edge>
    <edge id=":A1_15" function="internal">
        <lane id=":A1_15_0" index="0" speed="6.51" length="9.03" shape="9.60,165.20 12.05,164.85 13.80,163.80 14.85,162.05 15.20,159.60"/>
    </edge>
    <edge id=":A1_16" function="internal">
        <lane id=":A1_16_0" index="0" speed="13.89" length="20.80" shape="9.60,165.20 30.40,165.20"/>
        <lane id=":A1_16_1" index="1" speed="13.89" length="20.80" shape="9.60,168.40 30.40,168.40"/>
    </edge>
    <edge id=":A1_18" function="internal">
        <lane id=":A1_18_0" index="0" speed="9.26" length="6.96" shape="9.60,168.40 14.85,169.15 16.27,170.00"/>
    </edge>
    <edge id=":A1_19" function="internal">
        <lane id=":A1_19_0" index="0" speed="3.65" length="2.34" shape="9.60,168.40 10.80,169.20 11.20,170.00"/>
    </edge>
    <edge id=":A1_26" function="internal">
        <lane id=":A1_26_0" index="0" speed="9.26" length="12.40" shape="16.27,170.00 18.60,171.40 20.85,175.15 21.60,180.40"/>
    </edge>
    <edge id=":A1_27" function="internal">
        <lane id=":A1_27_0" index="0" speed="3.65" length="2.34" shape="11.20,170.00 10.80,170.80 9.60,171.60"/>
    </edge>
    <edge id=":A2_0" function="internal">
        <lane id=":A2_0_0" index="0" speed="6.51" length="9.03" shape="15.20,330.40 14.85,327.95 13.80,326.20 12.05,325.15 9.60,324.80"/>
    </edge>
    <edge id=":A2_1" function="internal">
        <lane id=":A2_1_0" index="0" speed="13.89" length="20.80" shape="15.20,330.40 15.20,309.60"/>
        <lane id=":A2_1_1" index="1" speed="13.89" length="20.80" shape="18.40,330.40 18.40,309.60"/>
    </edge>
    <edge id=":A2_3" function="internal">
        <lane id=":A2_3_0" index="0" speed="9.26" length="6.96" shape="18.40,330.40 19.15,325.15 20.00,323.73"/>
    </edge>
    <edge id=":A2_4" function="internal">
        <lane id=":A2_4_0" index="0" speed="3.65" length="2.34" shape="18.40,330.40 19.20,329.20 20.00,328.80"/>
    </edge>
    <edge id=":A2_20" function="internal">
        <lane id=":A2_20_0" index="0" speed="9.26" length="12.40" shape="20.00,323.73 21.40,321.40 25.15,319.15 30.40,318.40"/>
    </edge>
    <edge id=":A2_21" function="internal">
        <lane id=":A2_21_0" index="0" speed="3.65" length="2.34" shape="20.00,328.80 20.80,329.20 21.60,330.40"/>
    </edge>
    <edge id=":A2_5" function="internal">
        <lane id=":A2_5_0" index="0" speed="6.51" length="9.03" shape="30.40,324.80 27.95,325.15 26.20,326.20 25.15,327.95 24.80,330.40"/>
    </edge>
    <edge id=":A2_6" function="internal">
        <lane id=":A2_6_0" index="0" speed="13.89" length="20.80" shape="30.40,324.80 9.60,324.80"/>
        <lane id=":A2_6_1" index="1" speed="13.89" length="20.80" shape="30.40,321.60 9.60,321.60"/>
    </edge>
    <edge id=":A2_8" function="internal">
        <lane id=":A2_8_0" index="0" speed="9.26" length="6.96" shape="30.40,321.60 25.15,320.85 23.73,320.00"/>
    </edge>
    <edge id=":A2_9" function="internal">
        <lane id=":A2_9_0" index="0" speed="3.65" length="2.34" shape="30.40,321.60 29.20,320.80 28.80,320.00"/>
    </edge>
    <edge id=":A2_22" function="internal">
        <lane id=":A2_22_0" index="0" speed="9.26" length="12.40" shape="23.73,320.00 21.40,318.60 19.15,314.85 18.40,309.60"/>
    </edge>
    <edge id=":A2_23" function="internal">
        <lane id=":A2_23_0" index="0" speed="3.65" length="2.34" shape="28.80,320.00 29.20,319.20 30.40,318.40"/>
    </edge>
    <edge id=":A2_10" function="internal">
        <lane id=":A2_10_0" index="0" speed="6.51" length="9.03" shape="24.80,309.60 25.15,312.05 26.20,313.80 27.95,314.85 30.40,315.20"/>
    </edge>
    <edge id=":A2_11" function="internal">
        <lane id=":A2_11_0" index="0" speed="13.89" length="20.80" shape="24.80,309.60 24.80,330.40"/>
        <lane id=":A2_11_1" index="1" speed="13.89" length="20.80" shape="21.60,309.60 21.60,330.40"/>
    </edge>
    <edge id=":A2_13" function="internal">
        <lane id=":A2_13_0" index="0" speed="9.26" length="6.96" shape="21.60,309.60 20.85,314.85 20.00,316.27"/>
    </edge>
    <edge id=":A2_14" function="internal">
        <lane id=":A2_14_0" index="0" speed="3.65" length="2.34" shape="21.60,309.60 20.80,310.80 20.00,311.20"/>
    </edge>
    <edge id=":A2_24" function="internal">
        <lane id=":A2_24_0" index="0" speed="9.26" length="12.40" shape="20.00,316.27 18.60,318.60 14.85,320.85 9.60,321.60"/>
    </edge>
    <edge id=":A2_25" function="internal">
        <lane id=":A2_25_0" index="0" speed="3.65" length="2.34" shape="20.00,311.20 19.20,310.80 18.40,309.60"/>
    </edge>
    <edge id=":A2_15" function="internal">
        <lane id=":A2_15_0" index="0" speed="6.51" length="9.03" shape="9.60,315.20 12.05,314.85 13.80,313.80 14.85,312.05 15.20,309.60"/>
    </edge>
    <edge id=":A2_16" function="internal">
        <lane id=":A2_16_0" index="0" speed="13.89" length="20.80" shape="9.60,315.20 30.40,315.20"/>
        <lane id=":A2_16_1" index="1" speed="13.89" length="20.80" shape="9.60,318.40 30.40,318.40"/>
    </edge>
    <edge id=":A2_18" function="internal">
        <lane id=":A2_18_0" index="0" speed="9.26" length="6.96" shape="9.60,318.40 14.85,319.15 16.27,320.00"/>
    </edge>
    <edge id=":A2_19" function="internal">
        <lane id=":A2_19_0" index="0" speed="3.65" length="2.34" shape="9.60,318.40 10.80,319.20 11.20,320.00"/>
    </edge>
    <edge id=":A2_26" function="internal">
        <lane id=":A2_26_0" index="0" speed="9.26" length="12.40" shape="16.27,320.00 18.60,321.40 20.85,325.15 21.60,330.40"/>
    </edge>
    <edge id=":A2_27" function="internal">
        <lane id=":A2_27_0" index="0" speed="3.65" length="2.34" shape="11.20,320.00 10.80,320.80 9.60,321.60"/>
    </edge>
    <edge id=":A3_0" function="internal">
        <lane id=":A3_0_0" index="0" speed="6.51" length="9.03" shape="15.20,480.40 14.85,477.95 13.80,476.20 12.05,475.15 9.60,474.80"/>
    </edge>
    <edge id=":A3_1" function="internal">
        <lane id=":A3_1_0" index="0" speed="13.89" length="20.80" shape="15.20,480.40 15.20,459.60"/>
        <lane id=":A3_1_1" index="1" speed="13.89" length="20.80" shape="18.40,480.40 18.40,459.60"/>
    </edge>
    <edge id=":A3_3" function="internal">
        <lane id=":A3_3_0" index="0" speed="9.26" length="6.96" shape="18.40,480.40 19.15,475.15 20.00,473.73"/>
    </edge>
    <edge id=":A3_4" function="internal">
        <lane id=":A3_4_0" index="0" speed="3.65" length="2.34" shape="18.40,480.40 19.20,479.20 20.00,478.80"/>
    </edge>
    <edge id=":A3_20" function="internal">
        <lane id=":A3_20_0" index="0" speed="9.26" length="12.40" shape="20.00,473.73 21.40,471.40 25.15,469.15 30.40,468.40"/>
    </edge>
    <edge id=":A3_21" function="internal">
        <lane id=":A3_21_0" index="0" speed="3.65" length="2.34" shape="20.00,478.80 20.80,479.20 21.60,480.40"/>
    </edge>
    <edge id=":A3_5" function="internal">
        <lane id=":A3_5_0" index="0" speed="6.51" length="9.03" shape="30.40,474.80 27.95,475.15 26.20,476.20 25.15,477.95 24.80,480.40"/>
    </edge>
    <edge id=":A3_6" function="internal">
        <lane id=":A3_6_0" index="0" speed="13.89" length="20.80" shape="30.40,474.80 9.60,474.80"/>
        <lane id=":A3_6_1" index="1" speed="13.89" length="20.80" shape="30.40,471.60 9.60,471.60"/>
    </edge>
    <edge id=":A3_8" function="internal">
        <lane id=":A3_8_0" index="0" speed="9.26" length="6.96" shape="30.40,471.60 25.15,470.85 23.73,470.00"/>
    </edge>
    <edge id=":A3_9" function="internal">
        <lane id=":A3_9_0" index="0" speed="3.65" length="2.34" shape="30.40,471.60 29.20,470.80 28.80,470.00"/>
    </edge>
    <edge id=":A3_22" function="internal">
        <lane id=":A3_22_0" index="0" speed="9.26" length="12.40" shape="23.73,470.00 21.40,468.60 19.15,464.85 18.40,459.60"/>
    </edge>
    <edge id=":A3_23" function="internal">
        <lane id=":A3_23_0" index="0" speed="3.65" length="2.34" shape="28.80,470.00 29.20,469.20 30.40,468.40"/>
    </edge>
    <edge id=":A3_10" function="internal">
        <lane id=":A3_10_0" index="0" speed="6.51" length="9.03" shape="24.80,459.60 25.15,462.05 26.20,463.80 27.95,464.85 30.40,465.20"/>
    </edge>
    <edge id=":A3_11" function="internal">
        <lane id=":A3_11_0" index="0" speed="13.89" length="20.80" shape="24.80,459.60 24.80,480.40"/>
        <lane id=":A3_11_1" index="1" speed="13.89" length="20.80" shape="21.60,459.60 21.60,480.40"/>
    </edge>
    <edge id=":A3_13" function="internal">
        <lane id=":A3_13_0" index="0" speed="9.26" length="6.96" shape="21.60,459.60 20.85,464.85 20.00,466.27"/>
    </edge>
    <edge id=":A3_14" function="internal">
        <lane id=":A3_14_0" index="0" speed="3.65" length="2.34" shape="21.60,459.60 20.80,460.80 20.00,461.20"/>
    </edge>
    <edge id=":A3_24" function="internal">
        <lane id=":A3_24_0" index="0" speed="9.26" length="12.40" shape="20.00,466.27 18.60,468.60 14.85,470.85 9.60,471.60"/>
    </edge>
    <edge id=":A3_25" function="internal">
        <lane id=":A3_25_0" index="0" speed="3.65" length="2.34" shape="20.00,461.20 19.20,460.80 18.40,459.60"/>
    </edge>
    <edge id=":A3_15" function="internal">
        <lane id=":A3_15_0" index="0" speed="6.51" length="9.03" shape="9.60,465.20 12.05,464.85 13.80,463.80 14.85,462.05 15.20,459.60"/>
    </edge>
    <edge id=":A3_16" function="internal">
        <lane id=":A3_16_0" index="0" speed="13.89" length="20.80" shape="9.60,465.20 30.40,465.20"/>
        <lane id=":A3_16_1" index="1" speed="13.89" length="20.80" shape="9.60,468.40 30.40,468.40"/>
    </edge>
    <edge id=":A3_18" function="internal">
        <lane id=":A3_18_0" index="0" speed="9.26" length="6.96" shape="9.60,468.40 14.85,469.15 16.27,470.00"/>
    </edge>
    <edge id=":A3_19" function="internal">
        <lane id=":A3_19_0" index="0" speed="3.65" length="2.34" shape="9.60,468.40 10.80,469.20 11.20,470.00"/>
    </edge>
    <edge id=":A3_26" function="internal">
        <lane id=":A3_26_0" index="0" speed="9.26" length="12.40" shape="16.27,470.00 18.60,471.40 20.85,475.15 21.60,480.40"/>
    </edge>
    <edge id=":A3_27" function="internal">
        <lane id=":A3_27_0" index="0" speed="3.65" length="2.34" shape="11.20,470.00 10.80,470.80 9.60,471.60"/>
    </edge>
    <edge id=":A4_0" function="internal">
        <lane id=":A4_0_0" index="0" speed="6.51" length="9.03" shape="15.20,630.40 14.85,627.95 13.80,626.20 12.05,625.15 9.60,624.80"/>
    </edge>
    <edge id=":A4_1" function="internal">
        <lane id=":A4_1_0" index="0" speed="13.89" length="20.80" shape="15.20,630.40 15.20,609.60"/>
        <lane id=":A4_1_1" index="1" speed="13.89" length="20.80" shape="18.40,630.40 18.40,609.60"/>
    </edge>
    <edge id=":A4_3" function="internal">
        <lane id=":A4_3_0" index="0" speed="9.26" length="6.96" shape="18.40,630.40 19.15,625.15 20.00,623.73"/>
    </edge>
    <edge id=":A4_4" function="internal">
        <lane id=":A4_4_0" index="0" speed="3.65" length="2.34" shape="18.40,630.40 19.20,629.20 20.00,628.80"/>
    </edge>
    <edge id=":A4_20" function="internal">
        <lane id=":A4_20_0" index="0" speed="9.26" length="12.40" shape="20.00,623.73 21.40,621.40 25.15,619.15 30.40,618.40"/>
    </edge>
    <edge id=":A4_21" function="internal">
        <lane id=":A4_21_0" index="0" speed="3.65" length="2.34" shape="20.00,628.80 20.80,629.20 21.60,630.40"/>
    </edge>
    <edge id=":A4_5" function="internal">
        <lane id=":A4_5_0" index="0" speed="6.51" length="9.03" shape="30.40,624.80 27.95,625.15 26.20,626.20 25.15,627.95 24.80,630.40"/>
    </edge>
    <edge id=":A4_6" function="internal">
        <lane id=":A4_6_0" index="0" speed="13.89" length="20.80" shape="30.40,624.80 9.60,624.80"/>
        <lane id=":A4_6_1" index="1" speed="13.89" length="20.80" shape="30.40,621.60 9.60,621.60"/>
    </edge>
    <edge id=":A4_8" function="internal">
        <lane id=":A4_8_0" index="0" speed="9.26" length="6.96" shape="30.40,621.60 25.15,620.85 23.73,620.00"/>
    </edge>
    <edge id=":A4_9" function="internal">
        <lane id=":A4_9_0" index="0" speed="3.65" length="2.34" shape="30.40,621.60 29.20,620.80 28.80,620.00"/>
    </edge>
    <edge id=":A4_22" function="internal">
        <lane id=":A4_22_0" index="0" speed="9.26" length="12.40" shape="23.73,620.00 21.40,618.60 19.15,614.85 18.40,609.60"/>
    </edge>
    <edge id=":A4_23" function="internal">
        <lane id=":A4_23_0" index="0" speed="3.65" length="2.34" shape="28.80,620.00 29.20,619.20 30.40,618.40"/>
    </edge>
    <edge id=":A4_10" function="internal">
        <lane id=":A4_10_0" index="0" speed="6.51" length="9.03" shape="24.80,609.60 25.15,612.05 26.20,613.80 27.95,614.85 30.40,615.20"/>
    </edge>
    <edge id=":A4_11" function="internal">
        <lane id=":A4_11_0" index="0" speed="13.89" length="20.80" shape="24.80,609.60 24.80,630.40"/>
        <lane id=":A4_11_1" index="1" speed="13.89" length="20.80" shape="21.60,609.60 21.60,630.40"/>
    </edge>
    <edge id=":A4_13" function="internal">
        <lane id=":A4_13_0" index="0" speed="9.26" length="6.96" shape="21.60,609.60 20.85,614.85 20.00,616.27"/>
    </edge>
    <edge id=":A4_14" function="internal">
        <lane id=":A4_14_0" index="0" speed="3.65" length="2.34" shape="21.60,609.60 20.80,610.80 20.00,611.20"/>
    </edge>
    <edge id=":A4_24" function="internal">
        <lane id=":A4_24_0" index="0" speed="9.26" length="12.40" shape="20.00,616.27 18.60,618.60 14.85,620.85 9.60,621.60"/>
    </edge>
    <edge id=":A4_25" function="internal">
        <lane id=":A4_25_0" index="0" speed="3.65" length="2.34" shape="20.00,611.20 19.20,610.80 18.40,609.60"/>
    </edge>
    <edge id=":A4_15" function="internal">
        <lane id=":A4_15_0" index="0" speed="6.51" length="9.03" shape="9.60,615.20 12.05,614.85 13.80,613.80 14.85,612.05 15.20,609.60"/>
    </edge>
    <edge id=":A4_16" function="internal">
        <lane id=":A4_16_0" index="0" speed="13.89" length="20.80" shape="9.60,615.20 30.40,615.20"/>
        <lane id=":A4_16_1" index="1" speed="13.89" length="20.80" shape="9.60,618.40 30.40,618.40"/>
    </edge>
    <edge id=":A4_18" function="internal">
        <lane id=":A4_18_0" index="0" speed="9.26" length="6.96" shape="9.60,618.40 14.85,619.15 16.27,620.00"/>
    </edge>
    <edge id=":A4_19" function="internal">
        <lane id=":A4_19_0" index="0" speed="3.65" length="2.34" shape="9.60,618.40 10.80,619.20 11.20,620.00"/>
    </edge>
    <edge id=":A4_26" function="internal">
        <lane id=":A4_26_0" index="0" speed="9.26" length="12.40" shape="16.27,620.00 18.60,621.40 20.85,625.15 21.60,630.40"/>
    </edge>
    <edge id=":A4_27" function="internal">
        <lane id=":A4_27_0" index="0" speed="3.65" length="2.34" shape="11.20,620.00 10.80,620.80 9.60,621.60"/>
    </edge>
    <edge id=":B0_0" function="internal">
        <lane id=":B0_0_0" index="0" speed="6.51" length="9.03" shape="215.20,30.40 214.85,27.95 213.80,26.20 212.05,25.15 209.60,24.80"/>
    </edge>
    <edge id=":B0_1" function="internal">
        <lane id=":B0_1_0" index="0" speed="13.89" length="20.80" shape="215.20,30.40 215.20,9.60"/>
        <lane id=":B0_1_1" index="1" speed="13.89" length="20.80" shape="218.40,30.40 218.40,9.60"/>
    </edge>
    <edge id=":B0_3" function="internal">
        <lane id=":B0_3_0" index="0" speed="9.26" length="6.96" shape="218.40,30.40 219.15,25.15 220.00,23.73"/>
    </edge>
    <edge id=":B0_4" function="internal">
        <lane id=":B0_4_0" index="0" speed="3.65" length="2.34" shape="218.40,30.40 219.20,29.20 220.00,28.80"/>
    </edge>
    <edge id=":B0_20" function="internal">
        <lane id=":B0_20_0" index="0" speed="9.26" length="12.40" shape="220.00,23.73 221.40,21.40 225.15,19.15 230.40,18.40"/>
    </edge>
    <edge id=":B0_21" function="internal">
        <lane id=":B0_21_0" index="0" speed="3.65" length="2.34" shape="220.00,28.80 220.80,29.20 221.60,30.40"/>
    </edge>
    <edge id=":B0_5" function="internal">
        <lane id=":B0_5_0" index="0" speed="6.51" length="9.03" shape="230.40,24.80 227.95,25.15 226.20,26.20 225.15,27.95 224.80,30.40"/>
    </edge>
    <edge id=":B0_6" function="internal">
        <lane id=":B0_6_0" index="0" speed="13.89" length="20.80" shape="230.40,24.80 209.60,24.80"/>
        <lane id=":B0_6_1" index="1" speed="13.89" length="20.80" shape="230.40,21.60 209.60,21.60"/>
    </edge>
    <edge id=":B0_8" function="internal">
        <lane id=":B0_8_0" index="0" speed="9.26" length="6.96" shape="230.40,21.60 225.15,20.85 223.73,20.00"/>
    </edge>
    <edge id=":B0_9" function="internal">
        <lane id=":B0_9_0" index="0" speed="3.65" length="2.34" shape="230.40,21.60 229.20,20.80 228.80,20.00"/>
    </edge>
    <edge id=":B0_22" function="internal">
        <lane id=":B0_22_0" index="0" speed="9.26" length="12.40" shape="223.73,20.00 221.40,18.60 219.15,14.85 218.40,9.60"/>
    </edge>
    <edge id=":B0_23" function="internal">
        <lane id=":B0_23_0" index="0" speed="3.65" length="2.34" shape="228.80,20.00 229.20,19.20 230.40,18.40"/>
    </edge>
    <edge id=":B0_10" function="internal">
        <lane id=":B0_10_0" index="0" speed="6.51" length="9.03" shape="224.80,9.60 225.15,12.05 226.20,13.80 227.95,14.85 230.40,15.20"/>
    </edge>
    <edge id=":B0_11" function="internal">
        <lane id=":B0_11_0" index="0" speed="13.89" length="20.80" shape="224.80,9.60 224.80,30.40"/>
        <lane id=":B0_11_1" index="1" speed="13.89" length="20.80" shape="221.60,9.60 221.60,30.40"/>
    </edge>
    <edge id=":B0_13" function="internal">
        <lane id=":B0_13_0" index="0" speed="9.26" length="6.96" shape="221.60,9.60 220.85,14.85 220.00,16.27"/>
    </edge>
    <edge id=":B0_14" function="internal">
        <lane id=":B0_14_0" index="0" speed="3.65" length="2.34" shape="221.60,9.60 220.80,10.80 220.00,11.20"/>
    </edge>
    <edge id=":B0_24" function="internal">
        <lane id=":B0_24_0" index="0" speed="9.26" length="12.40" shape="220.00,16.27 218.60,18.60 214.85,20.85 209.60,21.60"/>
    </edge>
    <edge id=":B0_25" function="internal">
        <lane id=":B0_25_0" index="0" speed="3.65" length="2.34" shape="220.00,11.20 219.20,10.80 218.40,9.60"/>
    </edge>
    <edge id=":B0_15" function="internal">
        <lane id=":B0_15_0" index="0" speed="6.51" length="9.03" shape="209.60,15.20 212.05,14.85 213.80,13.80 214.85,12.05 215.20,9.60"/>
    </edge>
    <edge id=":B0_16" function="internal">
        <lane id=":B0_16_0" index="0" speed="13.89" length="20.80" shape="209.60,15.20 230.40,15.20"/>
        <lane id=":B0_16_1" index="1" speed="13.89" length="20.80" shape="209.60,18.40 230.40,18.40"/>
    </edge>
    <edge id=":B0_18" function="internal">
        <lane id=":B0_18_0" index="0" speed="9.26" length="6.96" shape="209.60,18.40 214.85,19.15 216.27,20.00"/>
    </edge>
    <edge id=":B0_19" function="internal">
        <lane id=":B0_19_0" index="0" speed="3.65" length="2.34" shape="209.60,18.40 210.80,19.20 211.20,20.00"/>
    </edge>
    <edge id=":B0_26" function="internal">
        <lane id=":B0_26_0" index="0" speed="9.26" length="12.40" shape="216.27,20.00 218.60,21.40 220.85,25.15 221.60,30.40"/>
    </edge>
    <edge id=":B0_27" function="internal">
        <lane id=":B0_27_0" index="0" speed="3.65" length="2.34" shape="211.20,20.00 210.80,20.80 209.60,21.60"/>
    </edge>
    <edge id=":B1_0" function="internal">
        <lane id=":B1_0_0" index="0" speed="6.51" length="9.03" shape="215.20,180.40 214.85,177.95 213.80,176.20 212.05,175.15 209.60,174.80"/>
    </edge>
    <edge id=":B1_1" function="internal">
        <lane id=":B1_1_0" index="0" speed="13.89" length="20.80" shape="215.20,180.40 215.20,159.60"/>
        <lane id=":B1_1_1" index="1" speed="13.89" length="20.80" shape="218.40,180.40 218.40,159.60"/>
    </edge>
    <edge id=":B1_3" function="internal">
        <lane id=":B1_3_0" index="0" speed="9.26" length="6.96" shape="218.40,180.40 219.15,175.15 220.00,173.73"/>
    </edge>
    <edge id=":B1_4" function="internal">
        <lane id=":B1_4_0" index="0" speed="3.65" length="2.34" shape="218.40,180.40 219.20,179.20 220.00,178.80"/>
    </edge>
    <edge id=":B1_20" function="internal">
        <lane id=":B1_20_0" index="0" speed="9.26" length="12.40" shape="220.00,173.73 221.40,171.40 225.15,169.15 230.40,168.40"/>
    </edge>
    <edge id=":B1_21" function="internal">
        <lane id=":B1_21_0" index="0" speed="3.65" length="2.34" shape="220.00,178.80 220.80,179.20 221.60,180.40"/>
    </edge>
    <edge id=":B1_5" function="internal">
        <lane id=":B1_5_0" index="0" speed="6.51" length="9.03" shape="230.40,174.80 227.95,175.15 226.20,176.20 225.15,177.95 224.80,180.40"/>
    </edge>
    <edge id=":B1_6" function="internal">
        <lane id=":B1_6_0" index="0" speed="13.89" length="20.80" shape="230.40,174.80 209.60,174.80"/>
        <lane id=":B1_6_1" index="1" speed="13.89" length="20.80" shape="230.40,171.60 209.60,171.60"/>
    </edge>
    <edge id=":B1_8" function="internal">