<?xml version="1.0" encoding="UTF-8"?>

<!-- generated on Mon Apr 12 01:14:53 2021 by Eclipse SUMO netconvert Version 1.3.1
<configuration xmlns:xsi="http://www.w3.org/2001/XMLSchema-instance" xsi:noNamespaceSchemaLocation="http://sumo.dlr.de/xsd/netconvertConfiguration.xsd">

    <input>
        <sumo-net-file value="../dayuan.grid.1.net.xml"/>
    </input>

    <output>
        <plain-output-prefix value="plain_ATL"/>
    </output>

    <processing>
        <geometry.max-grade.fix value="false"/>
        <offset.disable-normalization value="true"/>
        <opposites.guess.fix-lengths value="true"/>
        <lefthand value="false"/>
    </processing>

    <junctions>
        <no-turnarounds value="true"/>
        <junctions.corner-detail value="5"/>
        <junctions.limit-turn-speed value="5.5"/>
        <rectangular-lane-cut value="false"/>
    </junctions>

    <pedestrian>
        <walkingareas value="false"/>
    </pedestrian>

</configuration>
-->

<connections version="1.3" xmlns:xsi="http://www.w3.org/2001/XMLSchema-instance" xsi:noNamespaceSchemaLocation="http://sumo.dlr.de/xsd/connections_file.xsd">
    <connection from="A0A1" to="A1B1" fromLane="0" toLane="0"/>
    <connection from="A0A1" to="A1A2" fromLane="0" toLane="0"/>
    <connection from="A0A1" to="A1A2" fromLane="1" toLane="1"/>
    <connection from="A0A1" to="A1left1" fromLane="1" toLane="1"/>
    <connection from="A0A1" to="A1A0" fromLane="1" toLane="1"/>

    <connection from="A0B0" to="B0bottom1" fromLane="0" toLane="0"/>
    <connection from="A0B0" to="B0C0" fromLane="0" toLane="0"/>
    <connection from="A0B0" to="B0C0" fromLane="1" toLane="1"/>
    <connection from="A0B0" to="B0B1" fromLane="1" toLane="1"/>
    <connection from="A0B0" to="B0A0" fromLane="1" toLane="1"/>

    <connection from="A0bottom0" to="bottom0A0" fromLane="1" toLane="1"/>

    <connection from="A0left0" to="left0A0" fromLane="1" toLane="1"/>

    <connection from="A1A0" to="A0left0" fromLane="0" toLane="0"/>
    <connection from="A1A0" to="A0bottom0" fromLane="0" toLane="0"/>
    <connection from="A1A0" to="A0bottom0" fromLane="1" toLane="1"/>
    <connection from="A1A0" to="A0B0" fromLane="1" toLane="1"/>
    <connection from="A1A0" to="A0A1" fromLane="1" toLane="1"/>

    <connection from="A1A2" to="A2B2" fromLane="0" toLane="0"/>
    <connection from="A1A2" to="A2A3" fromLane="0" toLane="0"/>
    <connection from="A1A2" to="A2A3" fromLane="1" toLane="1"/>
    <connection from="A1A2" to="A2left2" fromLane="1" toLane="1"/>
    <connection from="A1A2" to="A2A1" fromLane="1" toLane="1"/>

    <connection from="A1B1" to="B1B0" fromLane="0" toLane="0"/>
    <connection from="A1B1" to="B1C1" fromLane="0" toLane="0"/>
    <connection from="A1B1" to="B1C1" fromLane="1" toLane="1"/>
    <connection from="A1B1" to="B1B2" fromLane="1" toLane="1"/>
    <connection from="A1B1" to="B1A1" fromLane="1" toLane="1"/>

    <connection from="A1left1" to="left1A1" fromLane="1" toLane="1"/>

    <connection from="A2A1" to="A1left1" fromLane="0" toLane="0"/>
    <connection from="A2A1" to="A1A0" fromLane="0" toLane="0"/>
    <connection from="A2A1" to="A1A0" fromLane="1" toLane="1"/>
    <connection from="A2A1" to="A1B1" fromLane="1" toLane="1"/>
    <connection from="A2A1" to="A1A2" fromLane="1" toLane="1"/>

    <connection from="A2A3" to="A3B3" fromLane="0" toLane="0"/>
    <connection from="A2A3" to="A3A4" fromLane="0" toLane="0"/>
    <connection from="A2A3" to="A3A4" fromLane="1" toLane="1"/>
    <connection from="A2A3" to="A3left3" fromLane="1" toLane="1"/>
    <connection from="A2A3" to="A3A2" fromLane="1" toLane="1"/>

    <connection from="A2B2" to="B2B1" fromLane="0" toLane="0"/>
    <connection from="A2B2" to="B2C2" fromLane="0" toLane="0"/>
    <connection from="A2B2" to="B2C2" fromLane="1" toLane="1"/>
    <connection from="A2B2" to="B2B3" fromLane="1" toLane="1"/>
    <connection from="A2B2" to="B2A2" fromLane="1" toLane="1"/>

    <connection from="A2left2" to="left2A2" fromLane="1" toLane="1"/>

    <connection from="A3A2" to="A2left2" fromLane="0" toLane="0"/>
    <connection from="A3A2" to="A2A1" fromLane="0" toLane="0"/>
    <connection from="A3A2" to="A2A1" fromLane="1" toLane="1"/>
    <connection from="A3A2" to="A2B2" fromLane="1" toLane="1"/>
    <connection from="A3A2" to="A2A3" fromLane="1" toLane="1"/>

    <connection from="A3A4" to="A4B4" fromLane="0" toLane="0"/>
    <connection from="A3A4" to="A4top0" fromLane="0" toLane="0"/>
    <connection from="A3A4" to="A4top0" fromLane="1" toLane="1"/>
    <connection from="A3A4" to="A4left4" fromLane="1" toLane="1"/>
    <connection from="A3A4" to="A4A3" fromLane="1" toLane="1"/>

    <connection from="A3B3" to="B3B2" fromLane="0" toLane="0"/>
    <connection from="A3B3" to="B3C3" fromLane="0" toLane="0"/>
    <connection from="A3B3" to="B3C3" fromLane="1" toLane="1"/>
    <connection from="A3B3" to="B3B4" fromLane="1" toLane="1"/>
    <connection from="A3B3" to="B3A3" fromLane="1" toLane="1"/>

    <connection from="A3left3" to="left3A3" fromLane="1" toLane="1"/>

    <connection from="A4A3" to="A3left3" fromLane="0" toLane="0"/>
    <connection from="A4A3" to="A3A2" fromLane="0" toLane="0"/>
    <connection from="A4A3" to="A3A2" fromLane="1" toLane="1"/>
    <connection from="A4A3" to="A3B3" fromLane="1" toLane="1"/>
    <connection from="A4A3" to="A3A4" fromLane="1" toLane="1"/>

    <connection from="A4B4" to="B4B3" fromLane="0" toLane="0"/>
    <connection from="A4B4" to="B4C4" fromLane="0" toLane="0"/>
    <connection from="A4B4" to="B4C4" fromLane="1" toLane="1"/>
    <connection from="A4B4" to="B4top1" fromLane="1" toLane="1"/>
    <connection from="A4B4" to="B4A4" fromLane="1" toLane="1"/>

    <connection from="A4left4" to="left4A4" fromLane="1" toLane="1"/>

    <connection from="A4top0" to="top0A4" fromLane="1" toLane="1"/>

    <connection from="B0A0" to="A0A1" fromLane="0" toLane="0"/>
    <connection from="B0A0" to="A0left0" fromLane="0" toLane="0"/>
    <connection from="B0A0" to="A0left0" fromLane="1" toLane="1"/>
    <connection from="B0A0" to="A0bottom0" fromLane="1" toLane="1"/>
    <connection from="B0A0" to="A0B0" fromLane="1" toLane="1"/>

    <connection from="B0B1" to="B1C1" fromLane="0" toLane="0"/>
    <connection from="B0B1" to="B1B2" fromLane="0" toLane="0"/>
    <connection from="B0B1" to="B1B2" fromLane="1" toLane="1"/>
    <connection from="B0B1" to="B1A1" fromLane="1" toLane="1"/>
    <connection from="B0B1" to="B1B0" fromLane="1" toLane="1"/>

    <connection from="B0C0" to="C0bottom2" fromLane="0" toLane="0"/>
    <connection from="B0C0" to="C0D0" fromLane="0" toLane="0"/>
    <connection from="B0C0" to="C0D0" fromLane="1" toLane="1"/>
    <connection from="B0C0" to="C0C1" fromLane="1" toLane="1"/>
    <connection from="B0C0" to="C0B0" fromLane="1" toLane="1"/>

    <connection from="B0bottom1" to="bottom1B0" fromLane="1" toLane="1"/>

    <connection from="B1A1" to="A1A2" fromLane="0" toLane="0"/>
    <connection from="B1A1" to="A1left1" fromLane="0" toLane="0"/>
    <connection from="B1A1" to="A1left1" fromLane="1" toLane="1"/>
    <connection from="B1A1" to="A1A0" fromLane="1" toLane="1"/>
    <connection from="B1A1" to="A1B1" fromLane="1" toLane="1"/>

    <connection from="B1B0" to="B0A0" fromLane="0" toLane="0"/>
    <connection from="B1B0" to="B0bottom1" fromLane="0" toLane="0"/>
    <connection from="B1B0" to="B0bottom1" fromLane="1" toLane="1"/>
    <connection from="B1B0" to="B0C0" fromLane="1" toLane="1"/>
    <connection from="B1B0" to="B0B1" fromLane="1" toLane="1"/>

    <connection from="B1B2" to="B2C2" fromLane="0" toLane="0"/>
    <connection from="B1B2" to="B2B3" fromLane="0" toLane="0"/>
    <connection from="B1B2" to="B2B3" fromLane="1" toLane="1"/>
    <connection from="B1B2" to="B2A2" fromLane="1" toLane="1"/>
    <connection from="B1B2" to="B2B1" fromLane="1" toLane="1"/>

    <connection from="B1C1" to="C1C0" fromLane="0" toLane="0"/>
    <connection from="B1C1" to="C1D1" fromLane="0" toLane="0"/>
    <connection from="B1C1" to="C1D1" fromLane="1" toLane="1"/>
    <connection from="B1C1" to="C1C2" fromLane="1" toLane="1"/>
    <connection from="B1C1" to="C1B1" fromLane="1" toLane="1"/>

    <connection from="B2A2" to="A2A3" fromLane="0" toLane="0"/>
    <connection from="B2A2" to="A2left2" fromLane="0" toLane="0"/>
    <connection from="B2A2" to="A2left2" fromLane="1" toLane="1"/>
    <connection from="B2A2" to="A2A1" fromLane="1" toLane="1"/>
    <connection from="B2A2" to="A2B2" fromLane="1" toLane="1"/>

    <connection from="B2B1" to="B1A1" fromLane="0" toLane="0"/>
    <connection from="B2B1" to="B1B0" fromLane="0" toLane="0"/>
    <connection from="B2B1" to="B1B0" fromLane="1" toLane="1"/>
    <connection from="B2B1" to="B1C1" fromLane="1" toLane="1"/>
    <connection from="B2B1" to="B1B2" fromLane="1" toLane="1"/>

    <connection from="B2B3" to="B3C3" fromLane="0" toLane="0"/>
    <connection from="B2B3" to="B3B4" fromLane="0" toLane="0"/>
    <connection from="B2B3" to="B3B4" fromLane="1" toLane="1"/>
    <connection from="B2B3" to="B3A3" fromLane="1" toLane="1"/>
    <connection from="B2B3" to="B3B2" fromLane="1" toLane="1"/>

    <connection from="B2C2" to="C2C1" fromLane="0" toLane="0"/>
    <connection from="B2C2" to="C2D2" fromLane="0" toLane="0"/>
    <connection from="B2C2" to="C2D2" fromLane="1" toLane="1"/>
    <connection from="B2C2" to="C2C3" fromLane="1" toLane="1"/>
    <connection from="B2C2" to="C2B2" fromLane="1" toLane="1"/>

    <connection from="B3A3" to="A3A4" fromLane="0" toLane="0"/>
    <connection from="B3A3" to="A3left3" fromLane="0" toLane="0"/>
    <connection from="B3A3" to="A3left3" fromLane="1" toLane="1"/>
    <connection from="B3A3" to="A3A2" fromLane="1" toLane="1"/>
    <connection from="B3A3" to="A3B3" fromLane="1" toLane="1"/>

    <connection from="B3B2" to="B2A2" fromLane="0" toLane="0"/>
    <connection from="B3B2" to="B2B1" fromLane="0" toLane="0"/>
    <connection from="B3B2" to="B2B1" fromLane="1" toLane="1"/>
    <connection from="B3B2" to="B2C2" fromLane="1" toLane="1"/>
    <connection from="B3B2" to="B2B3" fromLane="1" toLane="1"/>

    <connection from="B3B4" to="B4C4" fromLane="0" toLane="0"/>
    <connection from="B3B4" to="B4top1" fromLane="0" toLane="0"/>
    <connection from="B3B4" to="B4top1" fromLane="1" toLane="1"/>
    <connection from="B3B4" to="B4A4" fromLane="1" toLane="1"/>
    <connection from="B3B4" to="B4B3" fromLane="1" toLane="1"/>

    <connection from="B3C3" to="C3C2" fromLane="0" toLane="0"/>
    <connection from="B3C3" to="C3D3" fromLane="0" toLane="0"/>
    <connection from="B3C3" to="C3D3" fromLane="1" toLane="1"/>
    <connection from="B3C3" to="C3C4" fromLane="1" toLane="1"/>
    <connection from="B3C3" to="C3B3" fromLane="1" toLane="1"/>

    <connection from="B4A4" to="A4top0" fromLane="0" toLane="0"/>
    <connection from="B4A4" to="A4left4" fromLane="0" toLane="0"/>
    <connection from="B4A4" to="A4left4" fromLane="1" toLane="1"/>
    <connection from="B4A4" to="A4A3" fromLane="1" toLane="1"/>
    <connection from="B4A4" to="A4B4" fromLane="1" toLane="1"/>

    <connection from="B4B3" to="B3A3" fromLane="0" toLane="0"/>
    <connection from="B4B3" to="B3B2" fromLane="0" toLane="0"/>
    <connection from="B4B3" to="B3B2" fromLane="1" toLane="1"/>
    <connection from="B4B3" to="B3C3" fromLane="1" toLane="1"/>
    <connection from="B4B3" to="B3B4" fromLane="1" toLane="1"/>

    <connection from="B4C4" to="C4C3" fromLane="0" toLane="0"/>
    <connection from="B4C4" to="C4D4" fromLane="0" toLane="0"/>
    <connection from="B4C4" to="C4D4" fromLane="1" toLane="1"/>
    <connection from="B4C4" to="C4top2" fromLane="1" toLane="1"/>
    <connection from="B4C4" to="C4B4" fromLane="1" toLane="1"/>

    <connection from="B4top1" to="top1B4" fromLane="1" toLane="1"/>

    <connection from="C0B0" to="B0B1" fromLane="0" toLane="0"/>
    <connection from="C0B0" to="B0A0" fromLane="0" toLane="0"/>
    <connection from="C0B0" to="B0A0" fromLane="1" toLane="1"/>
    <connection from="C0B0" to="B0bottom1" fromLane="1" toLane="1"/>
    <connection from="C0B0" to="B0C0" fromLane="1" toLane="1"/>

    <connection from="C0C1" to="C1D1" fromLane="0" toLane="0"/>
    <connection from="C0C1" to="C1C2" fromLane="0" toLane="0"/>
    <connection from="C0C1" to="C1C2" fromLane="1" toLane="1"/>
    <connection from="C0C1" to="C1B1" fromLane="1" toLane="1"/>
    <connection from="C0C1" to="C1C0" fromLane="1" toLane="1"/>

    <connection from="C0D0" to="D0bottom3" fromLane="0" toLane="0"/>
    <connection from="C0D0" to="D0right0" fromLane="0" toLane="0"/>
    <connection from="C0D0" to="D0right0" fromLane="1" toLane="1"/>
    <connection from="C0D0" to="D0D1" fromLane="1" toLane="1"/>
    <connection from="C0D0" to="D0C0" fromLane="1" toLane="1"/>

    <connection from="C0bottom2" to="bottom2C0" fromLane="1" toLane="1"/>

    <connection from="C1B1" to="B1B2" fromLane="0" toLane="0"/>
    <connection from="C1B1" to="B1A1" fromLane="0" toLane="0"/>
    <connection from="C1B1" to="B1A1" fromLane="1" toLane="1"/>
    <connection from="C1B1" to="B1B0" fromLane="1" toLane="1"/>
    <connection from="C1B1" to="B1C1" fromLane="1" toLane="1"/>

    <connection from="C1C0" to="C0B0" fromLane="0" toLane="0"/>
    <connection from="C1C0" to="C0bottom2" fromLane="0" toLane="0"/>
    <connection from="C1C0" to="C0bottom2" fromLane="1" toLane="1"/>
    <connection from="C1C0" to="C0D0" fromLane="1" toLane="1"/>
    <connection from="C1C0" to="C0C1" fromLane="1" toLane="1"/>

    <connection from="C1C2" to="C2D2" fromLane="0" toLane="0"/>
    <connection from="C1C2" to="C2C3" fromLane="0" toLane="0"/>
    <connection from="C1C2" to="C2C3" fromLane="1" toLane="1"/>
    <connection from="C1C2" to="C2B2" fromLane="1" toLane="1"/>
    <connection from="C1C2" to="C2C1" fromLane="1" toLane="1"/>

    <connection from="C1D1" to="D1D0" fromLane="0" toLane="0"/>
    <connection from="C1D1" to="D1right1" fromLane="0" toLane="0"/>
    <connection from="C1D1" to="D1right1" fromLane="1" toLane="1"/>
    <connection from="C1D1" to="D1D2" fromLane="1" toLane="1"/>
    <connection from="C1D1" to="D1C1" fromLane="1" toLane="1"/>

    <connection from="C2B2" to="B2B3" fromLane="0" toLane="0"/>
    <connection from="C2B2" to="B2A2" fromLane="0" toLane="0"/>
    <connection from="C2B2" to="B2A2" fromLane="1" toLane="1"/>
    <connection from="C2B2" to="B2B1" fromLane="1" toLane="1"/>
    <connection from="C2B2" to="B2C2" fromLane="1" toLane="1"/>

    <connection from="C2C1" to="C1B1" fromLane="0" toLane="0"/>
    <connection from="C2C1" to="C1C0" fromLane="0" toLane="0"/>
    <connection from="C2C1" to="C1C0" fromLane="1" toLane="1"/>
    <connection from="C2C1" to="C1D1" fromLane="1" toLane="1"/>
    <connection from="C2C1" to="C1C2" fromLane="1" toLane="1"/>

    <connection from="C2C3" to="C3D3" fromLane="0" toLane="0"/>
    <connection from="C2C3" to="C3C4" fromLane="0" toLane="0"/>
    <connection from="C2C3" to="C3C4" fromLane="1" toLane="1"/>
    <connection from="C2C3" to="C3B3" fromLane="1" toLane="1"/>
    <connection from="C2C3" to="C3C2" fromLane="1" toLane="1"/>

    <connection from="C2D2" to="D2D1" fromLane="0" toLane="0"/>
    <connection from="C2D2" to="D2right2" fromLane="0" toLane="0"/>
    <connection from="C2D2" to="D2right2" fromLane="1" toLane="1"/>
    <connection from="C2D2" to="D2D3" fromLane="1" toLane="1"/>
    <connection from="C2D2" to="D2C2" fromLane="1" toLane="1"/>

    <connection from="C3B3" to="B3B4" fromLane="0" toLane="0"/>
    <connection from="C3B3" to="B3A3" fromLane="0" toLane="0"/>
    <connection from="C3B3" to="B3A3" fromLane="1" toLane="1"/>
    <connection from="C3B3" to="B3B2" fromLane="1" toLane="1"/>
    <connection from="C3B3" to="B3C3" fromLane="1" toLane="1"/>

    <connection from="C3C2" to="C2B2" fromLane="0" toLane="0"/>
    <connection from="C3C2" to="C2C1" fromLane="0" toLane="0"/>
    <connection from="C3C2" to="C2C1" fromLane="1" toLane="1"/>
    <connection from="C3C2" to="C2D2" fromLane="1" toLane="1"/>
    <connection from="C3C2" to="C2C3" fromLane="1" toLane="1"/>

    <connection from="C3C4" to="C4D4" fromLane="0" toLane="0"/>
    <connection from="C3C4" to="C4top2" fromLane="0" toLane="0"/>
    <connection from="C3C4" to="C4top2" fromLane="1" toLane="1"/>
    <connection from="C3C4" to="C4B4" fromLane="1" toLane="1"/>
    <connection from="C3C4" to="C4C3" fromLane="1" toLane="1"/>

    <connection from="C3D3" to="D3D2" fromLane="0" toLane="0"/>
    <connection from="C3D3" to="D3right3" fromLane="0" toLane="0"/>
    <connection from="C3D3" to="D3right3" fromLane="1" toLane="1"/>
    <connection from="C3D3" to="D3D4" fromLane="1" toLane="1"/>
    <connection from="C3D3" to="D3C3" fromLane="1" toLane="1"/>

    <connection from="C4B4" to="B4top1" fromLane="0" toLane="0"/>
    <connection from="C4B4" to="B4A4" fromLane="0" toLane="0"/>
    <connection from="C4B4" to="B4A4" fromLane="1" toLane="1"/>
    <connection from="C4B4" to="B4B3" fromLane="1" toLane="1"/>
    <connection from="C4B4" to="B4C4" fromLane="1" toLane="1"/>

    <connection from="C4C3" to="C3B3" fromLane="0" toLane="0"/>
    <connection from="C4C3" to="C3C2" fromLane="0" toLane="0"/>
    <connection from="C4C3" to="C3C2" fromLane="1" toLane="1"/>
    <connection from="C4C3" to="C3D3" fromLane="1" toLane="1"/>
    <connection from="C4C3" to="C3C4" fromLane="1" toLane="1"/>

    <connection from="C4D4" to="D4D3" fromLane="0" toLane="0"/>
    <connection from="C4D4" to="D4right4" fromLane="0" toLane="0"/>
    <connection from="C4D4" to="D4right4" fromLane="1" toLane="1"/>
    <connection from="C4D4" to="D4top3" fromLane="1" toLane="1"/>
    <connection from="C4D4" to="D4C4" fromLane="1" toLane="1"/>

    <connection from="C4top2" to="top2C4" fromLane="1" toLane="1"/>

    <connection from="D0C0" to="C0C1" fromLane="0" toLane="0"/>
    <connection from="D0C0" to="C0B0" fromLane="0" toLane="0"/>
    <connection from="D0C0" to="C0B0" fromLane="1" toLane="1"/>
    <connection from="D0C0" to="C0bottom2" fromLane="1" toLane="1"/>
    <connection from="D0C0" to="C0D0" fromLane="1" toLane="1"/>

    <connection from="D0D1" to="D1right1" fromLane="0" toLane="0"/>
    <connection from="D0D1" to="D1D2" fromLane="0" toLane="0"/>
    <connection from="D0D1" to="D1D2" fromLane="1" toLane="1"/>
    <connection from="D0D1" to="D1C1" fromLane="1" toLane="1"/>
    <connection from="D0D1" to="D1D0" fromLane="1" toLane="1"/>

    <connection from="D0bottom3" to="bottom3D0" fromLane="1" toLane="1"/>

    <connection from="D0right0" to="right0D0" fromLane="1" toLane="1"/>

    <connection from="D1C1" to="C1C2" fromLane="0" toLane="0"/>
    <connection from="D1C1" to="C1B1" fromLane="0" toLane="0"/>
    <connection from="D1C1" to="C1B1" fromLane="1" toLane="1"/>
    <connection from="D1C1" to="C1C0" fromLane="1" toLane="1"/>
    <connection from="D1C1" to="C1D1" fromLane="1" toLane="1"/>

    <connection from="D1D0" to="D0C0" fromLane="0" toLane="0"/>
    <connection from="D1D0" to="D0bottom3" fromLane="0" toLane="0"/>
    <connection from="D1D0" to="D0bottom3" fromLane="1" toLane="1"/>
    <connection from="D1D0" to="D0right0" fromLane="1" toLane="1"/>
    <connection from="D1D0" to="D0D1" fromLane="1" toLane="1"/>

    <connection from="D1D2" to="D2right2" fromLane="0" toLane="0"/>
    <connection from="D1D2" to="D2D3" fromLane="0" toLane="0"/>
    <connection from="D1D2" to="D2D3" fromLane="1" toLane="1"/>
    <connection from="D1D2" to="D2C2" fromLane="1" toLane="1"/>
    <connection from="D1D2" to="D2D1" fromLane="1" toLane="1"/>

    <connection from="D1right1" to="right1D1" fromLane="1" toLane="1"/>

    <connection from="D2C2" to="C2C3" fromLane="0" toLane="0"/>
    <connection from="D2C2" to="C2B2" fromLane="0" toLane="0"/>
    <connection from="D2C2" to="C2B2" fromLane="1" toLane="1"/>
    <connection from="D2C2" to="C2C1" fromLane="1" toLane="1"/>
    <connection from="D2C2" to="C2D2" fromLane="1" toLane="1"/>

    <connection from="D2D1" to="D1C1" fromLane="0" toLane="0"/>
    <connection from="D2D1" to="D1D0" fromLane="0" toLane="0"/>
    <connection from="D2D1" to="D1D0" fromLane="1" toLane="1"/>
    <connection from="D2D1" to="D1right1" fromLane="1" toLane="1"/>
    <connection from="D2D1" to="D1D2" fromLane="1" toLane="1"/>

    <connection from="D2D3" to="D3right3" fromLane="0" toLane="0"/>
    <connection from="D2D3" to="D3D4" fromLane="0" toLane="0"/>
    <connection from="D2D3" to="D3D4" fromLane="1" toLane="1"/>
    <connection from="D2D3" to="D3C3" fromLane="1" toLane="1"/>
    <connection from="D2D3" to="D3D2" fromLane="1" toLane="1"/>

    <connection from="D2right2" to="right2D2" fromLane="1" toLane="1"/>

    <connection from="D3C3" to="C3C4" fromLane="0" toLane="0"/>
    <connection from="D3C3" to="C3B3" fromLane="0" toLane="0"/>
    <connection from="D3C3" to="C3B3" fromLane="1" toLane="1"/>
    <connection from="D3C3" to="C3C2" fromLane="1" toLane="1"/>
    <connection from="D3C3" to="C3D3" fromLane="1" toLane="1"/>

    <connection from="D3D2" to="D2C2" fromLane="0" toLane="0"/>
    <connection from="D3D2" to="D2D1" fromLane="0" toLane="0"/>
    <connection from="D3D2" to="D2D1" fromLane="1" toLane="1"/>
    <connection from="D3D2" to="D2right2" fromLane="1" toLane="1"/>
    <connection from="D3D2" to="D2D3" fromLane="1" toLane="1"/>

    <connection from="D3D4" to="D4right4" fromLane="0" toLane="0"/>
    <connection from="D3D4" to="D4top3" fromLane="0" toLane="0"/>
    <connection from="D3D4" to="D4top3" fromLane="1" toLane="1"/>
    <connection from="D3D4" to="D4C4" fromLane="1" toLane="1"/>
    <connection from="D3D4" to="D4D3" fromLane="1" toLane="1"/>

    <connection from="D3right3" to="right3D3" fromLane="1" toLane="1"/>

    <connection from="D4C4" to="C4top2" fromLane="0" toLane="0"/>
    <connection from="D4C4" to="C4B4" fromLane="0" toLane="0"/>
    <connection from="D4C4" to="C4B4" fromLane="1" toLane="1"/>
    <connection from="D4C4" to="C4C3" fromLane="1" toLane="1"/>
    <connection from="D4C4" to="C4D4" fromLane="1" toLane="1"/>

    <connection from="D4D3" to="D3C3" fromLane="0" toLane="0"/>
    <connection from="D4D3" to="D3D2" fromLane="0" toLane="0"/>
    <connection from="D4D3" to="D3D2" fromLane="1" toLane="1"/>
    <connection from="D4D3" to="D3right3" fromLane="1" toLane="1"/>
    <connection from="D4D3" to="D3D4" fromLane="1" toLane="1"/>

    <connection from="D4right4" to="right4D4" fromLane="1" toLane="1"/>

    <connection from="D4top3" to="top3D4" fromLane="1" toLane="1"/>

    <connection from="bottom0A0" to="A0B0" fromLane="0" toLane="0"/>
    <connection from="bottom0A0" to="A0A1" fromLane="0" toLane="0"/>
    <connection from="bottom0A0" to="A0A1" fromLane="1" toLane="1"/>
    <connection from="bottom0A0" to="A0left0" fromLane="1" toLane="1"/>
    <connection from="bottom0A0" to="A0bottom0" fromLane="1" toLane="1"/>

    <connection from="bottom1B0" to="B0C0" fromLane="0" toLane="0"/>
    <connection from="bottom1B0" to="B0B1" fromLane="0" toLane="0"/>
    <connection from="bottom1B0" to="B0B1" fromLane="1" toLane="1"/>
    <connection from="bottom1B0" to="B0A0" fromLane="1" toLane="1"/>
    <connection from="bottom1B0" to="B0bottom1" fromLane="1" toLane="1"/>

    <connection from="bottom2C0" to="C0D0" fromLane="0" toLane="0"/>
    <connection from="bottom2C0" to="C0C1" fromLane="0" toLane="0"/>
    <connection from="bottom2C0" to="C0C1" fromLane="1" toLane="1"/>
    <connection from="bottom2C0" to="C0B0" fromLane="1" toLane="1"/>
    <connection from="bottom2C0" to="C0bottom2" fromLane="1" toLane="1"/>

    <connection from="bottom3D0" to="D0right0" fromLane="0" toLane="0"/>
    <connection from="bottom3D0" to="D0D1" fromLane="0" toLane="0"/>
    <connection from="bottom3D0" to="D0D1" fromLane="1" toLane="1"/>
    <connection from="bottom3D0" to="D0C0" fromLane="1" toLane="1"/>
    <connection from="bottom3D0" to="D0bottom3" fromLane="1" toLane="1"/>

    <connection from="left0A0" to="A0bottom0" fromLane="0" toLane="0"/>
    <connection from="left0A0" to="A0B0" fromLane="0" toLane="0"/>
    <connection from="left0A0" to="A0B0" fromLane="1" toLane="1"/>
    <connection from="left0A0" to="A0A1" fromLane="1" toLane="1"/>
    <connection from="left0A0" to="A0left0" fromLane="1" toLane="1"/>

    <connection from="left1A1" to="A1A0" fromLane="0" toLane="0"/>
    <connection from="left1A1" to="A1B1" fromLane="0" toLane="0"/>
    <connection from="left1A1" to="A1B1" fromLane="1" toLane="1"/>
    <connection from="left1A1" to="A1A2" fromLane="1" toLane="1"/>
    <connection from="left1A1" to="A1left1" fromLane="1" toLane="1"/>

    <connection from="left2A2" to="A2A1" fromLane="0" toLane="0"/>
    <connection from="left2A2" to="A2B2" fromLane="0" toLane="0"/>
    <connection from="left2A2" to="A2B2" fromLane="1" toLane="1"/>
    <connection from="left2A2" to="A2A3" fromLane="1" toLane="1"/>
    <connection from="left2A2" to="A2left2" fromLane="1" toLane="1"/>

    <connection from="left3A3" to="A3A2" fromLane="0" toLane="0"/>
    <connection from="left3A3" to="A3B3" fromLane="0" toLane="0"/>
    <connection from="left3A3" to="A3B3" fromLane="1" toLane="1"/>
    <connection from="left3A3" to="A3A4" fromLane="1" toLane="1"/>
    <connection from="left3A3" to="A3left3" fromLane="1" toLane="1"/>

    <connection from="left4A4" to="A4A3" fromLane="0" toLane="0"/>
    <connection from="left4A4" to="A4B4" fromLane="0" toLane="0"/>
    <connection from="left4A4" to="A4B4" fromLane="1" toLane="1"/>
    <connection from="left4A4" to="A4top0" fromLane="1" toLane="1"/>
    <connection from="left4A4" to="A4left4" fromLane="1" toLane="1"/>

    <connection from="right0D0" to="D0D1" fromLane="0" toLane="0"/>
    <connection from="right0D0" to="D0C0" fromLane="0" toLane="0"/>
    <connection from="right0D0" to="D0C0" fromLane="1" toLane="1"/>
    <connection from="right0D0" to="D0bottom3" fromLane="1" toLane="1"/>
    <connection from="right0D0" to="D0right0" fromLane="1" toLane="1"/>

    <connection from="right1D1" to="D1D2" fromLane="0" toLane="0"/>
    <connection from="right1D1" to="D1C1" fromLane="0" toLane="0"/>
    <connection from="right1D1" to="D1C1" fromLane="1" toLane="1"/>
    <connection from="right1D1" to="D1D0" fromLane="1" toLane="1"/>
    <connection from="right1D1" to="D1right1" fromLane="1" toLane="1"/>

    <connection from="right2D2" to="D2D3" fromLane="0" toLane="0"/>
    <connection from="right2D2" to="D2C2" fromLane="0" toLane="0"/>
    <connection from="right2D2" to="D2C2" fromLane="1" toLane="1"/>
    <connection from="right2D2" to="D2D1" fromLane="1" toLane="1"/>
    <connection from="right2D2" to="D2right2" fromLane="1" toLane="1"/>

    <connection from="right3D3" to="D3D4" fromLane="0" toLane="0"/>
    <connection from="right3D3" to="D3C3" fromLane="0" toLane="0"/>
    <connection from="right3D3" to="D3C3" fromLane="1" toLane="1"/>
    <connection from="right3D3" to="D3D2" fromLane="1" toLane="1"/>
    <connection from="right3D3" to="D3right3" fromLane="1" toLane="1"/>

    <connection from="right4D4" to="D4top3" fromLane="0" toLane="0"/>
    <connection from="right4D4" to="D4C4" fromLane="0" toLane="0"/>
    <connection from="right4D4" to="D4C4" fromLane="1" toLane="1"/>
    <connection from="right4D4" to="D4D3" fromLane="1" toLane="1"/>
    <connection from="right4D4" to="D4right4" fromLane="1" toLane="1"/>

    <connection from="top0A4" to="A4left4" fromLane="0" toLane="0"/>
    <connection from="top0A4" to="A4A3" fromLane="0" toLane="0"/>
    <connection from="top0A4" to="A4A3" fromLane="1" toLane="1"/>
    <connection from="top0A4" to="A4B4" fromLane="1" toLane="1"/>
    <connection from="top0A4" to="A4top0" fromLane="1" toLane="1"/>

    <connection from="top1B4" to="B4A4" fromLane="0" toLane="0"/>
    <connection from="top1B4" to="B4B3" fromLane="0" toLane="0"/>
    <connection from="top1B4" to="B4B3" fromLane="1" toLane="1"/>
    <connection from="top1B4" to="B4C4" fromLane="1" toLane="1"/>
    <connection from="top1B4" to="B4top1" fromLane="1" toLane="1"/>

    <connection from="top2C4" to="C4B4" fromLane="0" toLane="0"/>
    <connection from="top2C4" to="C4C3" fromLane="0" toLane="0"/>
    <connection from="top2C4" to="C4C3" fromLane="1" toLane="1"/>
    <connection from="top2C4" to="C4D4" fromLane="1" toLane="1"/>
    <connection from="top2C4" to="C4top2" fromLane="1" toLane="1"/>

    <connection from="top3D4" to="D4C4" fromLane="0" toLane="0"/>
    <connection from="top3D4" to="D4D3" fromLane="0" toLane="0"/>
    <connection from="top3D4" to="D4D3" fromLane="1" toLane="1"/>
    <connection from="top3D4" to="D4right4" fromLane="1" toLane="1"/>
    <connection from="top3D4" to="D4top3" fromLane="1" toLane="1"/>

</connections>
