<?xml version="1.0" encoding="UTF-8"?>

<!-- generated on Mon Apr 12 01:14:53 2021 by Eclipse SUMO netconvert Version 1.3.1
<configuration xmlns:xsi="http://www.w3.org/2001/XMLSchema-instance" xsi:noNamespaceSchemaLocation="http://sumo.dlr.de/xsd/netconvertConfiguration.xsd">

    <input>
        <sumo-net-file value="../dayuan.grid.1.net.xml"/>
    </input>

    <output>
        <plain-output-prefix value="plain_ATL"/>
    </output>

    <processing>
        <geometry.max-grade.fix value="false"/>
        <offset.disable-normalization value="true"/>
        <opposites.guess.fix-lengths value="true"/>
        <lefthand value="false"/>
    </processing>

    <junctions>
        <no-turnarounds value="true"/>
        <junctions.corner-detail value="5"/>
        <junctions.limit-turn-speed value="5.5"/>
        <rectangular-lane-cut value="false"/>
    </junctions>

    <pedestrian>
        <walkingareas value="false"/>
    </pedestrian>

</configuration>
-->

<tlLogics version="1.3" xmlns:xsi="http://www.w3.org/2001/XMLSchema-instance" xsi:noNamespaceSchemaLocation="http://sumo.dlr.de/xsd/tllogic_file.xsd">
    <tlLogic id="A0" type="static" programID="0" offset="0">
        <phase duration="42" state="GGGggrrrrrGGGggrrrrr"/>
        <phase duration="3"  state="yyyyyrrrrryyyyyrrrrr"/>
        <phase duration="42" state="rrrrrGGGggrrrrrGGGgg"/>
        <phase duration="3"  state="rrrrryyyyyrrrrryyyyy"/>
    </tlLogic>
    <tlLogic id="A1" type="static" programID="0" offset="0">
        <phase duration="42" state="GGGggrrrrrGGGggrrrrr"/>
        <phase duration="3"  state="yyyyyrrrrryyyyyrrrrr"/>
        <phase duration="42" state="rrrrrGGGggrrrrrGGGgg"/>
        <phase duration="3"  state="rrrrryyyyyrrrrryyyyy"/>
    </tlLogic>
    <tlLogic id="A2" type="static" programID="0" offset="0">
        <phase duration="42" state="GGGggrrrrrGGGggrrrrr"/>
        <phase duration="3"  state="yyyyyrrrrryyyyyrrrrr"/>
        <phase duration="42" state="rrrrrGGGggrrrrrGGGgg"/>
        <phase duration="3"  state="rrrrryyyyyrrrrryyyyy"/>
    </tlLogic>
    <tlLogic id="A3" type="static" programID="0" offset="0">
        <phase duration="42" state="GGGggrrrrrGGGggrrrrr"/>
        <phase duration="3"  state="yyyyyrrrrryyyyyrrrrr"/>
        <phase duration="42" state="rrrrrGGGggrrrrrGGGgg"/>
        <phase duration="3"  state="rrrrryyyyyrrrrryyyyy"/>
    </tlLogic>
    <tlLogic id="A4" type="static" programID="0" offset="0">
        <phase duration="42" state="GGGggrrrrrGGGggrrrrr"/>
        <phase duration="3"  state="yyyyyrrrrryyyyyrrrrr"/>
        <phase duration="42" state="rrrrrGGGggrrrrrGGGgg"/>
        <phase duration="3"  state="rrrrryyyyyrrrrryyyyy"/>
    </tlLogic>
    <tlLogic id="B0" type="static" programID="0" offset="0">
        <phase duration="42" state="GGGggrrrrrGGGggrrrrr"/>
        <phase duration="3"  state="yyyyyrrrrryyyyyrrrrr"/>
        <phase duration="42" state="rrrrrGGGggrrrrrGGGgg"/>
        <phase duration="3"  state="rrrrryyyyyrrrrryyyyy"/>
    </tlLogic>
    <tlLogic id="B1" type="static" programID="0" offset="0">
        <phase duration="42" state="GGGggrrrrrGGGggrrrrr"/>
        <phase duration="3"  state="yyyyyrrrrryyyyyrrrrr"/>
        <phase duration="42" state="rrrrrGGGggrrrrrGGGgg"/>
        <phase duration="3"  state="rrrrryyyyyrrrrryyyyy"/>
    </tlLogic>
    <tlLogic id="B2" type="static" programID="0" offset="0">
        <phase duration="42" state="GGGggrrrrrGGGggrrrrr"/>
        <phase duration="3"  state="yyyyyrrrrryyyyyrrrrr"/>
        <phase duration="42" state="rrrrrGGGggrrrrrGGGgg"/>
        <phase duration="3"  state="rrrrryyyyyrrrrryyyyy"/>
    </tlLogic>
    <tlLogic id="B3" type="static" programID="0" offset="0">
        <phase duration="42" state="GGGggrrrrrGGGggrrrrr"/>
        <phase duration="3"  state="yyyyyrrrrryyyyyrrrrr"/>
        <phase duration="42" state="rrrrrGGGggrrrrrGGGgg"/>
        <phase duration="3"  state="rrrrryyyyyrrrrryyyyy"/>
    </tlLogic>
    <tlLogic id="B4" type="static" programID="0" offset="0">
        <phase duration="42" state="GGGggrrrrrGGGggrrrrr"/>
        <phase duration="3"  state="yyyyyrrrrryyyyyrrrrr"/>
        <phase duration="42" state="rrrrrGGGggrrrrrGGGgg"/>
        <phase duration="3"  state="rrrrryyyyyrrrrryyyyy"/>
    </tlLogic>
    <tlLogic id="C0" type="static" programID="0" offset="0">
        <phase duration="42" state="GGGggrrrrrGGGggrrrrr"/>
        <phase duration="3"  state="yyyyyrrrrryyyyyrrrrr"/>
        <phase duration="42" state="rrrrrGGGggrrrrrGGGgg"/>
        <phase duration="3"  state="rrrrryyyyyrrrrryyyyy"/>
    </tlLogic>
    <tlLogic id="C1" type="static" programID="0" offset="0">
        <phase duration="42" state="GGGggrrrrrGGGggrrrrr"/>
        <phase duration="3"  state="yyyyyrrrrryyyyyrrrrr"/>
        <phase duration="42" state="rrrrrGGGggrrrrrGGGgg"/>
        <phase duration="3"  state="rrrrryyyyyrrrrryyyyy"/>
    </tlLogic>
    <tlLogic id="C2" type="static" programID="0" offset="0">
        <phase duration="42" state="GGGggrrrrrGGGggrrrrr"/>
        <phase duration="3"  state="yyyyyrrrrryyyyyrrrrr"/>
        <phase duration="42" state="rrrrrGGGggrrrrrGGGgg"/>
        <phase duration="3"  state="rrrrryyyyyrrrrryyyyy"/>
    </tlLogic>
    <tlLogic id="C3" type="static" programID="0" offset="0">
        <phase duration="42" state="GGGggrrrrrGGGggrrrrr"/>
        <phase duration="3"  state="yyyyyrrrrryyyyyrrrrr"/>
        <phase duration="42" state="rrrrrGGGggrrrrrGGGgg"/>
        <phase duration="3"  state="rrrrryyyyyrrrrryyyyy"/>
    </tlLogic>
    <tlLogic id="C4" type="static" programID="0" offset="0">
        <phase duration="42" state="GGGggrrrrrGGGggrrrrr"/>
        <phase duration="3"  state="yyyyyrrrrryyyyyrrrrr"/>
        <phase duration="42" state="rrrrrGGGggrrrrrGGGgg"/>
        <phase duration="3"  state="rrrrryyyyyrrrrryyyyy"/>
    </tlLogic>
    <tlLogic id="D0" type="static" programID="0" offset="0">
        <phase duration="42" state="GGGggrrrrrGGGggrrrrr"/>
        <phase duration="3"  state="yyyyyrrrrryyyyyrrrrr"/>
        <phase duration="42" state="rrrrrGGGggrrrrrGGGgg"/>
        <phase duration="3"  state="rrrrryyyyyrrrrryyyyy"/>
    </tlLogic>
    <tlLogic id="D1" type="static" programID="0" offset="0">
        <phase duration="42" state="GGGggrrrrrGGGggrrrrr"/>
        <phase duration="3"  state="yyyyyrrrrryyyyyrrrrr"/>
        <phase duration="42" state="rrrrrGGGggrrrrrGGGgg"/>
        <phase duration="3"  state="rrrrryyyyyrrrrryyyyy"/>
    </tlLogic>
    <tlLogic id="D2" type="static" programID="0" offset="0">
        <phase duration="42" state="GGGggrrrrrGGGggrrrrr"/>
        <phase duration="3"  state="yyyyyrrrrryyyyyrrrrr"/>
        <phase duration="42" state="rrrrrGGGggrrrrrGGGgg"/>
        <phase duration="3"  state="rrrrryyyyyrrrrryyyyy"/>
    </tlLogic>
    <tlLogic id="D3" type="static" programID="0" offset="0">
        <phase duration="42" state="GGGggrrrrrGGGggrrrrr"/>
        <phase duration="3"  state="yyyyyrrrrryyyyyrrrrr"/>
        <phase duration="42" state="rrrrrGGGggrrrrrGGGgg"/>
        <phase duration="3"  state="rrrrryyyyyrrrrryyyyy"/>
    </tlLogic>
    <tlLogic id="D4" type="static" programID="0" offset="0">
        <phase duration="42" state="GGGggrrrrrGGGggrrrrr"/>
        <phase duration="3"  state="yyyyyrrrrryyyyyrrrrr"/>
        <phase duration="42" state="rrrrrGGGggrrrrrGGGgg"/>
        <phase duration="3"  state="rrrrryyyyyrrrrryyyyy"/>
    </tlLogic>

    <connection from="A0A1" to="A1B1" fromLane="0" toLane="0" tl="A1" linkIndex="10"/>
    <connection from="A0A1" to="A1A2" fromLane="0" toLane="0" tl="A1" linkIndex="11"/>
    <connection from="A0A1" to="A1A2" fromLane="1" toLane="1" tl="A1" linkIndex="12"/>
    <connection from="A0A1" to="A1left1" fromLane="1" toLane="1" tl="A1" linkIndex="13"/>
    <connection from="A0A1" to="A1A0" fromLane="1" toLane="1" tl="A1" linkIndex="14"/>
    <connection from="A0B0" to="B0bottom1" fromLane="0" toLane="0" tl="B0" linkIndex="15"/>
    <connection from="A0B0" to="B0C0" fromLane="0" toLane="0" tl="B0" linkIndex="16"/>
    <connection from="A0B0" to="B0C0" fromLane="1" toLane="1" tl="B0" linkIndex="17"/>
    <connection from="A0B0" to="B0B1" fromLane="1" toLane="1" tl="B0" linkIndex="18"/>
    <connection from="A0B0" to="B0A0" fromLane="1" toLane="1" tl="B0" linkIndex="19"/>
    <connection from="A1A0" to="A0left0" fromLane="0" toLane="0" tl="A0" linkIndex="0"/>
    <connection from="A1A0" to="A0bottom0" fromLane="0" toLane="0" tl="A0" linkIndex="1"/>
    <connection from="A1A0" to="A0bottom0" fromLane="1" toLane="1" tl="A0" linkIndex="2"/>
    <connection from="A1A0" to="A0B0" fromLane="1" toLane="1" tl="A0" linkIndex="3"/>
    <connection from="A1A0" to="A0A1" fromLane="1" toLane="1" tl="A0" linkIndex="4"/>
    <connection from="A1A2" to="A2B2" fromLane="0" toLane="0" tl="A2" linkIndex="10"/>
    <connection from="A1A2" to="A2A3" fromLane="0" toLane="0" tl="A2" linkIndex="11"/>
    <connection from="A1A2" to="A2A3" fromLane="1" toLane="1" tl="A2" linkIndex="12"/>
    <connection from="A1A2" to="A2left2" fromLane="1" toLane="1" tl="A2" linkIndex="13"/>
    <connection from="A1A2" to="A2A1" fromLane="1" toLane="1" tl="A2" linkIndex="14"/>
    <connection from="A1B1" to="B1B0" fromLane="0" toLane="0" tl="B1" linkIndex="15"/>
    <connection from="A1B1" to="B1C1" fromLane="0" toLane="0" tl="B1" linkIndex="16"/>
    <connection from="A1B1" to="B1C1" fromLane="1" toLane="1" tl="B1" linkIndex="17"/>
    <connection from="A1B1" to="B1B2" fromLane="1" toLane="1" tl="B1" linkIndex="18"/>
    <connection from="A1B1" to="B1A1" fromLane="1" toLane="1" tl="B1" linkIndex="19"/>
    <connection from="A2A1" to="A1left1" fromLane="0" toLane="0" tl="A1" linkIndex="0"/>
    <connection from="A2A1" to="A1A0" fromLane="0" toLane="0" tl="A1" linkIndex="1"/>
    <connection from="A2A1" to="A1A0" fromLane="1" toLane="1" tl="A1" linkIndex="2"/>
    <connection from="A2A1" to="A1B1" fromLane="1" toLane="1" tl="A1" linkIndex="3"/>
    <connection from="A2A1" to="A1A2" fromLane="1" toLane="1" tl="A1" linkIndex="4"/>
    <connection from="A2A3" to="A3B3" fromLane="0" toLane="0" tl="A3" linkIndex="10"/>
    <connection from="A2A3" to="A3A4" fromLane="0" toLane="0" tl="A3" linkIndex="11"/>
    <connection from="A2A3" to="A3A4" fromLane="1" toLane="1" tl="A3" linkIndex="12"/>
    <connection from="A2A3" to="A3left3" fromLane="1" toLane="1" tl="A3" linkIndex="13"/>
    <connection from="A2A3" to="A3A2" fromLane="1" toLane="1" tl="A3" linkIndex="14"/>
    <connection from="A2B2" to="B2B1" fromLane="0" toLane="0" tl="B2" linkIndex="15"/>
    <connection from="A2B2" to="B2C2" fromLane="0" toLane="0" tl="B2" linkIndex="16"/>
    <connection from="A2B2" to="B2C2" fromLane="1" toLane="1" tl="B2" linkIndex="17"/>
    <connection from="A2B2" to="B2B3" fromLane="1" toLane="1" tl="B2" linkIndex="18"/>
    <connection from="A2B2" to="B2A2" fromLane="1" toLane="1" tl="B2" linkIndex="19"/>
    <connection from="A3A2" to="A2left2" fromLane="0" toLane="0" tl="A2" linkIndex="0"/>
    <connection from="A3A2" to="A2A1" fromLane="0" toLane="0" tl="A2" linkIndex="1"/>
    <connection from="A3A2" to="A2A1" fromLane="1" toLane="1" tl="A2" linkIndex="2"/>
    <connection from="A3A2" to="A2B2" fromLane="1" toLane="1" tl="A2" linkIndex="3"/>
    <connection from="A3A2" to="A2A3" fromLane="1" toLane="1" tl="A2" linkIndex="4"/>
    <connection from="A3A4" to="A4B4" fromLane="0" toLane="0" tl="A4" linkIndex="10"/>
    <connection from="A3A4" to="A4top0" fromLane="0" toLane="0" tl="A4" linkIndex="11"/>
    <connection from="A3A4" to="A4top0" fromLane="1" toLane="1" tl="A4" linkIndex="12"/>
    <connection from="A3A4" to="A4left4" fromLane="1" toLane="1" tl="A4" linkIndex="13"/>
    <connection from="A3A4" to="A4A3" fromLane="1" toLane="1" tl="A4" linkIndex="14"/>
    <connection from="A3B3" to="B3B2" fromLane="0" toLane="0" tl="B3" linkIndex="15"/>
    <connection from="A3B3" to="B3C3" fromLane="0" toLane="0" tl="B3" linkIndex="16"/>
    <connection from="A3B3" to="B3C3" fromLane="1" toLane="1" tl="B3" linkIndex="17"/>
    <connection from="A3B3" to="B3B4" fromLane="1" toLane="1" tl="B3" linkIndex="18"/>
    <connection from="A3B3" to="B3A3" fromLane="1" toLane="1" tl="B3" linkIndex="19"/>
    <connection from="A4A3" to="A3left3" fromLane="0" toLane="0" tl="A3" linkIndex="0"/>
    <connection from="A4A3" to="A3A2" fromLane="0" toLane="0" tl="A3" linkIndex="1"/>
    <connection from="A4A3" to="A3A2" fromLane="1" toLane="1" tl="A3" linkIndex="2"/>
    <connection from="A4A3" to="A3B3" fromLane="1" toLane="1" tl="A3" linkIndex="3"/>
    <connection from="A4A3" to="A3A4" fromLane="1" toLane="1" tl="A3" linkIndex="4"/>
    <connection from="A4B4" to="B4B3" fromLane="0" toLane="0" tl="B4" linkIndex="15"/>
    <connection from="A4B4" to="B4C4" fromLane="0" toLane="0" tl="B4" linkIndex="16"/>
    <connection from="A4B4" to="B4C4" fromLane="1" toLane="1" tl="B4" linkIndex="17"/>
    <connection from="A4B4" to="B4top1" fromLane="1" toLane="1" tl="B4" linkIndex="18"/>
    <connection from="A4B4" to="B4A4" fromLane="1" toLane="1" tl="B4" linkIndex="19"/>
    <connection from="B0A0" to="A0A1" fromLane="0" toLane="0" tl="A0" linkIndex="5"/>
    <connection from="B0A0" to="A0left0" fromLane="0" toLane="0" tl="A0" linkIndex="6"/>
    <connection from="B0A0" to="A0left0" fromLane="1" toLane="1" tl="A0" linkIndex="7"/>
    <connection from="B0A0" to="A0bottom0" fromLane="1" toLane="1" tl="A0" linkIndex="8"/>
    <connection from="B0A0" to="A0B0" fromLane="1" toLane="1" tl="A0" linkIndex="9"/>
    <connection from="B0B1" to="B1C1" fromLane="0" toLane="0" tl="B1" linkIndex="10"/>
    <connection from="B0B1" to="B1B2" fromLane="0" toLane="0" tl="B1" linkIndex="11"/>
    <connection from="B0B1" to="B1B2" fromLane="1" toLane="1" tl="B1" linkIndex="12"/>
    <connection from="B0B1" to="B1A1" fromLane="1" toLane="1" tl="B1" linkIndex="13"/>
    <connection from="B0B1" to="B1B0" fromLane="1" toLane="1" tl="B1" linkIndex="14"/>
    <connection from="B0C0" to="C0bottom2" fromLane="0" toLane="0" tl="C0" linkIndex="15"/>
    <connection from="B0C0" to="C0D0" fromLane="0" toLane="0" tl="C0" linkIndex="16"/>
    <connection from="B0C0" to="C0D0" fromLane="1" toLane="1" tl="C0" linkIndex="17"/>
    <connection from="B0C0" to="C0C1" fromLane="1" toLane="1" tl="C0" linkIndex="18"/>
    <connection from="B0C0" to="C0B0" fromLane="1" toLane="1" tl="C0" linkIndex="19"/>
    <connection from="B1A1" to="A1A2" fromLane="0" toLane="0" tl="A1" linkIndex="5"/>
    <connection from="B1A1" to="A1left1" fromLane="0" toLane="0" tl="A1" linkIndex="6"/>
    <connection from="B1A1" to="A1left1" fromLane="1" toLane="1" tl="A1" linkIndex="7"/>
    <connection from="B1A1" to="A1A0" fromLane="1" toLane="1" tl="A1" linkIndex="8"/>
    <connection from="B1A1" to="A1B1" fromLane="1" toLane="1" tl="A1" linkIndex="9"/>
    <connection from="B1B0" to="B0A0" fromLane="0" toLane="0" tl="B0" linkIndex="0"/>
    <connection from="B1B0" to="B0bottom1" fromLane="0" toLane="0" tl="B0" linkIndex="1"/>
    <connection from="B1B0" to="B0bottom1" fromLane="1" toLane="1" tl="B0" linkIndex="2"/>
    <connection from="B1B0" to="B0C0" fromLane="1" toLane="1" tl="B0" linkIndex="3"/>
    <connection from="B1B0" to="B0B1" fromLane="1" toLane="1" tl="B0" linkIndex="4"/>
    <connection from="B1B2" to="B2C2" fromLane="0" toLane="0" tl="B2" linkIndex="10"/>
    <connection from="B1B2" to="B2B3" fromLane="0" toLane="0" tl="B2" linkIndex="11"/>
    <connection from="B1B2" to="B2B3" fromLane="1" toLane="1" tl="B2" linkIndex="12"/>
    <connection from="B1B2" to="B2A2" fromLane="1" toLane="1" tl="B2" linkIndex="13"/>
    <connection from="B1B2" to="B2B1" fromLane="1" toLane="1" tl="B2" linkIndex="14"/>
    <connection from="B1C1" to="C1C0" fromLane="0" toLane="0" tl="C1" linkIndex="15"/>
    <connection from="B1C1" to="C1D1" fromLane="0" toLane="0" tl="C1" linkIndex="16"/>
    <connection from="B1C1" to="C1D1" fromLane="1" toLane="1" tl="C1" linkIndex="17"/>
    <connection from="B1C1" to="C1C2" fromLane="1" toLane="1" tl="C1" linkIndex="18"/>
    <connection from="B1C1" to="C1B1" fromLane="1" toLane="1" tl="C1" linkIndex="19"/>
    <connection from="B2A2" to="A2A3" fromLane="0" toLane="0" tl="A2" linkIndex="5"/>
    <connection from="B2A2" to="A2left2" fromLane="0" toLane="0" tl="A2" linkIndex="6"/>
    <connection from="B2A2" to="A2left2" fromLane="1" toLane="1" tl="A2" linkIndex="7"/>
    <connection from="B2A2" to="A2A1" fromLane="1" toLane="1" tl="A2" linkIndex="8"/>
    <connection from="B2A2" to="A2B2" fromLane="1" toLane="1" tl="A2" linkIndex="9"/>
    <connection from="B2B1" to="B1A1" fromLane="0" toLane="0" tl="B1" linkIndex="0"/>
    <connection from="B2B1" to="B1B0" fromLane="0" toLane="0" tl="B1" linkIndex="1"/>
    <connection from="B2B1" to="B1B0" fromLane="1" toLane="1" tl="B1" linkIndex="2"/>
    <connection from="B2B1" to="B1C1" fromLane="1" toLane="1" tl="B1" linkIndex="3"/>
    <connection from="B2B1" to="B1B2" fromLane="1" toLane="1" tl="B1" linkIndex="4"/>
    <connection from="B2B3" to="B3C3" fromLane="0" toLane="0" tl="B3" linkIndex="10"/>
    <connection from="B2B3" to="B3B4" fromLane="0" toLane="0" tl="B3" linkIndex="11"/>
    <connection from="B2B3" to="B3B4" fromLane="1" toLane="1" tl="B3" linkIndex="12"/>
    <connection from="B2B3" to="B3A3" fromLane="1" toLane="1" tl="B3" linkIndex="13"/>
    <connection from="B2B3" to="B3B2" fromLane="1" toLane="1" tl="B3" linkIndex="14"/>
    <connection from="B2C2" to="C2C1" fromLane="0" toLane="0" tl="C2" linkIndex="15"/>
    <connection from="B2C2" to="C2D2" fromLane="0" toLane="0" tl="C2" linkIndex="16"/>
    <connection from="B2C2" to="C2D2" fromLane="1" toLane="1" tl="C2" linkIndex="17"/>
    <connection from="B2C2" to="C2C3" fromLane="1" toLane="1" tl="C2" linkIndex="18"/>
    <connection from="B2C2" to="C2B2" fromLane="1" toLane="1" tl="C2" linkIndex="19"/>
    <connection from="B3A3" to="A3A4" fromLane="0" toLane="0" tl="A3" linkIndex="5"/>
    <connection from="B3A3" to="A3left3" fromLane="0" toLane="0" tl="A3" linkIndex="6"/>
    <connection from="B3A3" to="A3left3" fromLane="1" toLane="1" tl="A3" linkIndex="7"/>
    <connection from="B3A3" to="A3A2" fromLane="1" toLane="1" tl="A3" linkIndex="8"/>
    <connection from="B3A3" to="A3B3" fromLane="1" toLane="1" tl="A3" linkIndex="9"/>
    <connection from="B3B2" to="B2A2" fromLane="0" toLane="0" tl="B2" linkIndex="0"/>
    <connection from="B3B2" to="B2B1" fromLane="0" toLane="0" tl="B2" linkIndex="1"/>
    <connection from="B3B2" to="B2B1" fromLane="1" toLane="1" tl="B2" linkIndex="2"/>
    <connection from="B3B2" to="B2C2" fromLane="1" toLane="1" tl="B2" linkIndex="3"/>
    <connection from="B3B2" to="B2B3" fromLane="1" toLane="1" tl="B2" linkIndex="4"/>
    <connection from="B3B4" to="B4C4" fromLane="0" toLane="0" tl="B4" linkIndex="10"/>
    <connection from="B3B4" to="B4top1" fromLane="0" toLane="0" tl="B4" linkIndex="11"/>
    <connection from="B3B4" to="B4top1" fromLane="1" toLane="1" tl="B4" linkIndex="12"/>
    <connection from="B3B4" to="B4A4" fromLane="1" toLane="1" tl="B4" linkIndex="13"/>
    <connection from="B3B4" to="B4B3" fromLane="1" toLane="1" tl="B4" linkIndex="14"/>
    <connection from="B3C3" to="C3C2" fromLane="0" toLane="0" tl="C3" linkIndex="15"/>
    <connection from="B3C3" to="C3D3" fromLane="0" toLane="0" tl="C3" linkIndex="16"/>
    <connection from="B3C3" to="C3D3" fromLane="1" toLane="1" tl="C3" linkIndex="17"/>
    <connection from="B3C3" to="C3C4" fromLane="1" toLane="1" tl="C3" linkIndex="18"/>
    <connection from="B3C3" to="C3B3" fromLane="1" toLane="1" tl="C3" linkIndex="19"/>
    <connection from="B4A4" to="A4top0" fromLane="0" toLane="0" tl="A4" linkIndex="5"/>
    <connection from="B4A4" to="A4left4" fromLane="0" toLane="0" tl="A4" linkIndex="6"/>
    <connection from="B4A4" to="A4left4" fromLane="1" toLane="1" tl="A4" linkIndex="7"/>
    <connection from="B4A4" to="A4A3" fromLane="1" toLane="1" tl="A4" linkIndex="8"/>
    <connection from="B4A4" to="A4B4" fromLane="1" toLane="1" tl="A4" linkIndex="9"/>
    <connection from="B4B3" to="B3A3" fromLane="0" toLane="0" tl="B3" linkIndex="0"/>
    <connection from="B4B3" to="B3B2" fromLane="0" toLane="0" tl="B3" linkIndex="1"/>
    <connection from="B4B3" to="B3B2" fromLane="1" toLane="1" tl="B3" linkIndex="2"/>
    <connection from="B4B3" to="B3C3" fromLane="1" toLane="1" tl="B3" linkIndex="3"/>
    <connection from="B4B3" to="B3B4" fromLane="1" toLane="1" tl="B3" linkIndex="4"/>
    <connection from="B4C4" to="C4C3" fromLane="0" toLane="0" tl="C4" linkIndex="15"/>
    <connection from="B4C4" to="C4D4" fromLane="0" toLane="0" tl="C4" linkIndex="16"/>
    <connection from="B4C4" to="C4D4" fromLane="1" toLane="1" tl="C4" linkIndex="17"/>
    <connection from="B4C4" to="C4top2" fromLane="1" toLane="1" tl="C4" linkIndex="18"/>
    <connection from="B4C4" to="C4B4" fromLane="1" toLane="1" tl="C4" linkIndex="19"/>
    <connection from="C0B0" to="B0B1" fromLane="0" toLane="0" tl="B0" linkIndex="5"/>
    <connection from="C0B0" to="B0A0" fromLane="0" toLane="0" tl="B0" linkIndex="6"/>
    <connection from="C0B0" to="B0A0" fromLane="1" toLane="1" tl="B0" linkIndex="7"/>
    <connection from="C0B0" to="B0bottom1" fromLane="1" toLane="1" tl="B0" linkIndex="8"/>
    <connection from="C0B0" to="B0C0" fromLane="1" toLane="1" tl="B0" linkIndex="9"/>
    <connection from="C0C1" to="C1D1" fromLane="0" toLane="0" tl="C1" linkIndex="10"/>
    <connection from="C0C1" to="C1C2" fromLane="0" toLane="0" tl="C1" linkIndex="11"/>
    <connection from="C0C1" to="C1C2" fromLane="1" toLane="1" tl="C1" linkIndex="12"/>
    <connection from="C0C1" to="C1B1" fromLane="1" toLane="1" tl="C1" linkIndex="13"/>
    <connection from="C0C1" to="C1C0" fromLane="1" toLane="1" tl="C1" linkIndex="14"/>
    <connection from="C0D0" to="D0bottom3" fromLane="0" toLane="0" tl="D0" linkIndex="15"/>
    <connection from="C0D0" to="D0right0" fromLane="0" toLane="0" tl="D0" linkIndex="16"/>
    <connection from="C0D0" to="D0right0" fromLane="1" toLane="1" tl="D0" linkIndex="17"/>
    <connection from="C0D0" to="D0D1" fromLane="1" toLane="1" tl="D0" linkIndex="18"/>
    <connection from="C0D0" to="D0C0" fromLane="1" toLane="1" tl="D0" linkIndex="19"/>
    <connection from="C1B1" to="B1B2" fromLane="0" toLane="0" tl="B1" linkIndex="5"/>
    <connection from="C1B1" to="B1A1" fromLane="0" toLane="0" tl="B1" linkIndex="6"/>
    <connection from="C1B1" to="B1A1" fromLane="1" toLane="1" tl="B1" linkIndex="7"/>
    <connection from="C1B1" to="B1B0" fromLane="1" toLane="1" tl="B1" linkIndex="8"/>
    <connection from="C1B1" to="B1C1" fromLane="1" toLane="1" tl="B1" linkIndex="9"/>
    <connection from="C1C0" to="C0B0" fromLane="0" toLane="0" tl="C0" linkIndex="0"/>
    <connection from="C1C0" to="C0bottom2" fromLane="0" toLane="0" tl="C0" linkIndex="1"/>
    <connection from="C1C0" to="C0bottom2" fromLane="1" toLane="1" tl="C0" linkIndex="2"/>
    <connection from="C1C0" to="C0D0" fromLane="1" toLane="1" tl="C0" linkIndex="3"/>
    <connection from="C1C0" to="C0C1" fromLane="1" toLane="1" tl="C0" linkIndex="4"/>
    <connection from="C1C2" to="C2D2" fromLane="0" toLane="0" tl="C2" linkIndex="10"/>
    <connection from="C1C2" to="C2C3" fromLane="0" toLane="0" tl="C2" linkIndex="11"/>
    <connection from="C1C2" to="C2C3" fromLane="1" toLane="1" tl="C2" linkIndex="12"/>
    <connection from="C1C2" to="C2B2" fromLane="1" toLane="1" tl="C2" linkIndex="13"/>
    <connection from="C1C2" to="C2C1" fromLane="1" toLane="1" tl="C2" linkIndex="14"/>
    <connection from="C1D1" to="D1D0" fromLane="0" toLane="0" tl="D1" linkIndex="15"/>
    <connection from="C1D1" to="D1right1" fromLane="0" toLane="0" tl="D1" linkIndex="16"/>
    <connection from="C1D1" to="D1right1" fromLane="1" toLane="1" tl="D1" linkIndex="17"/>
    <connection from="C1D1" to="D1D2" fromLane="1" toLane="1" tl="D1" linkIndex="18"/>
    <connection from="C1D1" to="D1C1" fromLane="1" toLane="1" tl="D1" linkIndex="19"/>
    <connection from="C2B2" to="B2B3" fromLane="0" toLane="0" tl="B2" linkIndex="5"/>
    <connection from="C2B2" to="B2A2" fromLane="0" toLane="0" tl="B2" linkIndex="6"/>
    <connection from="C2B2" to="B2A2" fromLane="1" toLane="1" tl="B2" linkIndex="7"/>
    <connection from="C2B2" to="B2B1" fromLane="1" toLane="1" tl="B2" linkIndex="8"/>
    <connection from="C2B2" to="B2C2" fromLane="1" toLane="1" tl="B2" linkIndex="9"/>
    <connection from="C2C1" to="C1B1" fromLane="0" toLane="0" tl="C1" linkIndex="0"/>
    <connection from="C2C1" to="C1C0" fromLane="0" toLane="0" tl="C1" linkIndex="1"/>
    <connection from="C2C1" to="C1C0" fromLane="1" toLane="1" tl="C1" linkIndex="2"/>
    <connection from="C2C1" to="C1D1" fromLane="1" toLane="1" tl="C1" linkIndex="3"/>
    <connection from="C2C1" to="C1C2" fromLane="1" toLane="1" tl="C1" linkIndex="4"/>
    <connection from="C2C3" to="C3D3" fromLane="0" toLane="0" tl="C3" linkIndex="10"/>
    <connection from="C2C3" to="C3C4" fromLane="0" toLane="0" tl="C3" linkIndex="11"/>
    <connection from="C2C3" to="C3C4" fromLane="1" toLane="1" tl="C3" linkIndex="12"/>
    <connection from="C2C3" to="C3B3" fromLane="1" toLane="1" tl="C3" linkIndex="13"/>
    <connection from="C2C3" to="C3C2" fromLane="1" toLane="1" tl="C3" linkIndex="14"/>
    <connection from="C2D2" to="D2D1" fromLane="0" toLane="0" tl="D2" linkIndex="15"/>
    <connection from="C2D2" to="D2right2" fromLane="0" toLane="0" tl="D2" linkIndex="16"/>
    <connection from="C2D2" to="D2right2" fromLane="1" toLane="1" tl="D2" linkIndex="17"/>
    <connection from="C2D2" to="D2D3" fromLane="1" toLane="1" tl="D2" linkIndex="18"/>
    <connection from="C2D2" to="D2C2" fromLane="1" toLane="1" tl="D2" linkIndex="19"/>
    <connection from="C3B3" to="B3B4" fromLane="0" toLane="0" tl="B3" linkIndex="5"/>
    <connection from="C3B3" to="B3A3" fromLane="0" toLane="0" tl="B3" linkIndex="6"/>
    <connection from="C3B3" to="B3A3" fromLane="1" toLane="1" tl="B3" linkIndex="7"/>
    <connection from="C3B3" to="B3B2" fromLane="1" toLane="1" tl="B3" linkIndex="8"/>
    <connection from="C3B3" to="B3C3" fromLane="1" toLane="1" tl="B3" linkIndex="9"/>
    <connection from="C3C2" to="C2B2" fromLane="0" toLane="0" tl="C2" linkIndex="0"/>
    <connection from="C3C2" to="C2C1" fromLane="0" toLane="0" tl="C2" linkIndex="1"/>
    <connection from="C3C2" to="C2C1" fromLane="1" toLane="1" tl="C2" linkIndex="2"/>
    <connection from="C3C2" to="C2D2" fromLane="1" toLane="1" tl="C2" linkIndex="3"/>
    <connection from="C3C2" to="C2C3" fromLane="1" toLane="1" tl="C2" linkIndex="4"/>
    <connection from="C3C4" to="C4D4" fromLane="0" toLane="0" tl="C4" linkIndex="10"/>
    <connection from="C3C4" to="C4top2" fromLane="0" toLane="0" tl="C4" linkIndex="11"/>
    <connection from="C3C4" to="C4top2" fromLane="1" toLane="1" tl="C4" linkIndex="12"/>
    <connection from="C3C4" to="C4B4" fromLane="1" toLane="1" tl="C4" linkIndex="13"/>
    <connection from="C3C4" to="C4C3" fromLane="1" toLane="1" tl="C4" linkIndex="14"/>
    <connection from="C3D3" to="D3D2" fromLane="0" toLane="0" tl="D3" linkIndex="15"/>
    <connection from="C3D3" to="D3right3" fromLane="0" toLane="0" tl="D3" linkIndex="16"/>
    <connection from="C3D3" to="D3right3" fromLane="1" toLane="1" tl="D3" linkIndex="17"/>
    <connection from="C3D3" to="D3D4" fromLane="1" toLane="1" tl="D3" linkIndex="18"/>
    <connection from="C3D3" to="D3C3" fromLane="1" toLane="1" tl="D3" linkIndex="19"/>
    <connection from="C4B4" to="B4top1" fromLane="0" toLane="0" tl="B4" linkIndex="5"/>
    <connection from="C4B4" to="B4A4" fromLane="0" toLane="0" tl="B4" linkIndex="6"/>
    <connection from="C4B4" to="B4A4" fromLane="1" toLane="1" tl="B4" linkIndex="7"/>
    <connection from="C4B4" to="B4B3" fromLane="1" toLane="1" tl="B4" linkIndex="8"/>
    <connection from="C4B4" to="B4C4" fromLane="1" toLane="1" tl="B4" linkIndex="9"/>
    <connection from="C4C3" to="C3B3" fromLane="0" toLane="0" tl="C3" linkIndex="0"/>
    <connection from="C4C3" to="C3C2" fromLane="0" toLane="0" tl="C3" linkIndex="1"/>
    <connection from="C4C3" to="C3C2" fromLane="1" toLane="1" tl="C3" linkIndex="2"/>
    <connection from="C4C3" to="C3D3" fromLane="1" toLane="1" tl="C3" linkIndex="3"/>
    <connection from="C4C3" to="C3C4" fromLane="1" toLane="1" tl="C3" linkIndex="4"/>
    <connection from="C4D4" to="D4D3" fromLane="0" toLane="0" tl="D4" linkIndex="15"/>
    <connection from="C4D4" to="D4right4" fromLane="0" toLane="0" tl="D4" linkIndex="16"/>
    <connection from="C4D4" to="D4right4" fromLane="1" toLane="1" tl="D4" linkIndex="17"/>
    <connection from="C4D4" to="D4top3" fromLane="1" toLane="1" tl="D4" linkIndex="18"/>
    <connection from="C4D4" to="D4C4" fromLane="1" toLane="1" tl="D4" linkIndex="19"/>
    <connection from="D0C0" to="C0C1" fromLane="0" toLane="0" tl="C0" linkIndex="5"/>
    <connection from="D0C0" to="C0B0" fromLane="0" toLane="0" tl="C0" linkIndex="6"/>
    <connection from="D0C0" to="C0B0" fromLane="1" toLane="1" tl="C0" linkIndex="7"/>
    <connection from="D0C0" to="C0bottom2" fromLane="1" toLane="1" tl="C0" linkIndex="8"/>
    <connection from="D0C0" to="C0D0" fromLane="1" toLane="1" tl="C0" linkIndex="9"/>
    <connection from="D0D1" to="D1right1" fromLane="0" toLane="0" tl="D1" linkIndex="10"/>
    <connection from="D0D1" to="D1D2" fromLane="0" toLane="0" tl="D1" linkIndex="11"/>
    <connection from="D0D1" to="D1D2" fromLane="1" toLane="1" tl="D1" linkIndex="12"/>
    <connection from="D0D1" to="D1C1" fromLane="1" toLane="1" tl="D1" linkIndex="13"/>
    <connection from="D0D1" to="D1D0" fromLane="1" toLane="1" tl="D1" linkIndex="14"/>
    <connection from="D1C1" to="C1C2" fromLane="0" toLane="0" tl="C1" linkIndex="5"/>
    <connection from="D1C1" to="C1B1" fromLane="0" toLane="0" tl="C1" linkIndex="6"/>
    <connection from="D1C1" to="C1B1" fromLane="1" toLane="1" tl="C1" linkIndex="7"/>