<?xml version="1.0" encoding="UTF-8"?>

<!-- generated on Mon Apr 12 01:14:53 2021 by Eclipse SUMO netconvert Version 1.3.1
<configuration xmlns:xsi="http://www.w3.org/2001/XMLSchema-instance" xsi:noNamespaceSchemaLocation="http://sumo.dlr.de/xsd/netconvertConfiguration.xsd">

    <input>
        <sumo-net-file value="../dayuan.grid.1.net.xml"/>
    </input>

    <output>
        <plain-output-prefix value="plain_ATL"/>
    </output>

    <processing>
        <geometry.max-grade.fix value="false"/>
        <offset.disable-normalization value="true"/>
        <opposites.guess.fix-lengths value="true"/>
        <lefthand value="false"/>
    </processing>

    <junctions>
        <no-turnarounds value="true"/>
        <junctions.corner-detail value="5"/>
        <junctions.limit-turn-speed value="5.5"/>
        <rectangular-lane-cut value="false"/>
    </junctions>

    <pedestrian>
        <walkingareas value="false"/>
    </pedestrian>

</configuration>
-->

<nodes version="1.3" xmlns:xsi="http://www.w3.org/2001/XMLSchema-instance" xsi:noNamespaceSchemaLocation="http://sumo.dlr.de/xsd/nodes_file.xsd">
    <location netOffset="0.00,0.00" convBoundary="0.00,0.00,640.00,640.00" origBoundary="0.00,0.00,640.00,640.00" projParameter="!"/>

    <node id="A0" x="20.00" y="20.00" type="traffic_light" tl="A0"/>
    <node id="A1" x="20.00" y="170.00" type="traffic_light" tl="A1"/>
    <node id="A2" x="20.00" y="320.00" type="traffic_light" tl="A2"/>
    <node id="A3" x="20.00" y="470.00" type="traffic_light" tl="A3"/>
    <node id="A4" x="20.00" y="620.00" type="traffic_light" tl="A4"/>
    <node id="B0" x="220.00" y="20.00" type="traffic_light" tl="B0"/>
    <node id="B1" x="220.00" y="170.00" type="traffic_light" tl="B1"/>
    <node id="B2" x="220.00" y="320.00" type="traffic_light" tl="B2"/>
    <node id="B3" x="220.00" y="470.00" type="traffic_light" tl="B3"/>
    <node id="B4" x="220.00" y="620.00" type="traffic_light" tl="B4"/>
    <node id="C0" x="420.00" y="20.00" type="traffic_light" tl="C0"/>
    <node id="C1" x="420.00" y="170.00" type="traffic_light" tl="C1"/>
    <node id="C2" x="420.00" y="320.00" type="traffic_light" tl="C2"/>
    <node id="C3" x="420.00" y="470.00" type="traffic_light" tl="C3"/>
    <node id="C4" x="420.00" y="620.00" type="traffic_light" tl="C4"/>
    <node id="D0" x="620.00" y="20.00" type="traffic_light" tl="D0"/>
    <node id="D1" x="620.00" y="170.00" type="traffic_light" tl="D1"/>
    <node id="D2" x="620.00" y="320.00" type="traffic_light" tl="D2"/>
    <node id="D3" x="620.00" y="470.00" type="traffic_light" tl="D3"/>
    <node id="D4" x="620.00" y="620.00" type="traffic_light" tl="D4"/>
    <node id="bottom0" x="20.00" y="0.00" type="priority"/>
    <node id="bottom1" x="220.00" y="0.00" type="priority"/>
    <node id="bottom2" x="420.00" y="0.00" type="priority"/>
    <node id="bottom3" x="620.00" y="0.00" type="priority"/>
    <node id="left0" x="0.00" y="20.00" type="priority"/>
    <node id="left1" x="0.00" y="170.00" type="priority"/>
    <node id="left2" x="0.00" y="320.00" type="priority"/>
    <node id="left3" x="0.00" y="470.00" type="priority"/>
    <node id="left4" x="0.00" y="620.00" type="priority"/>
    <node id="right0" x="640.00" y="20.00" type="priority"/>
    <node id="right1" x="640.00" y="170.00" type="priority"/>
    <node id="right2" x="640.00" y="320.00" type="priority"/>
    <node id="right3" x="640.00" y="470.00" type="priority"/>
    <node id="right4" x="640.00" y="620.00" type="priority"/>
    <node id="top0" x="20.00" y="640.00" type="priority"/>
    <node id="top1" x="220.00" y="640.00" type="priority"/>
    <node id="top2" x="420.00" y="640.00" type="priority"/>
    <node id="top3" x="620.00" y="640.00" type="priority"/>
</nodes>
